
     RDKit          3D

 31 33  0  0  0  0  0  0  0  0999 V2000
   -2.1380   -3.0872    1.6474 O   0  0  0  0  0  0  0  0  0  0  0  0
   -1.9213   -1.8383    1.0412 C   0  0  0  0  0  0  0  0  0  0  0  0
   -0.4994   -1.6618    0.7645 N   0  0  0  0  0  0  0  0  0  0  0  0
    0.0545   -0.5660    0.3295 C   0  0  0  0  0  0  0  0  0  0  0  0
    1.5205   -0.5724    0.0815 C   0  0  0  0  0  0  0  0  0  0  0  0
    2.3661   -1.4147    0.8288 C   0  0  0  0  0  0  0  0  0  0  0  0
    3.7436   -1.4287    0.5896 C   0  0  0  0  0  0  0  0  0  0  0  0
    4.2917   -0.6105   -0.4006 C   0  0  0  0  0  0  0  0  0  0  0  0
    3.4627    0.2209   -1.1566 C   0  0  0  0  0  0  0  0  0  0  0  0
    2.0846    0.2393   -0.9219 C   0  0  0  0  0  0  0  0  0  0  0  0
   -0.7398    0.6818    0.1184 C   0  0  0  0  0  0  0  0  0  0  0  0
   -0.2029    1.9030    0.5703 C   0  0  0  0  0  0  0  0  0  0  0  0
   -0.8657    3.1088    0.3323 C   0  0  0  0  0  0  0  0  0  0  0  0
   -0.1716    4.6180    0.8960 Cl  0  0  0  0  0  0  0  0  0  0  0  0
   -2.0744    3.1139   -0.3624 C   0  0  0  0  0  0  0  0  0  0  0  0
   -2.6305    1.9138   -0.8051 C   0  0  0  0  0  0  0  0  0  0  0  0
   -1.9909    0.6894   -0.5542 C   0  0  0  0  0  0  0  0  0  0  0  0
   -2.6229   -0.5151   -1.0196 N   0  0  0  0  0  0  0  0  0  0  0  0
   -2.6921   -1.7159   -0.2426 C   0  0  0  0  0  0  0  0  0  0  0  0
   -3.4073   -2.6724   -0.6468 O   0  0  0  0  0  0  0  0  0  0  0  0
   -1.7011   -3.7748    1.0785 H   0  0  0  0  0  0  0  0  0  0  0  0
   -2.2629   -1.0520    1.7487 H   0  0  0  0  0  0  0  0  0  0  0  0
    1.9635   -2.0529    1.6056 H   0  0  0  0  0  0  0  0  0  0  0  0
    4.3869   -2.0746    1.1733 H   0  0  0  0  0  0  0  0  0  0  0  0
    5.3582   -0.6236   -0.5845 H   0  0  0  0  0  0  0  0  0  0  0  0
    3.8876    0.8489   -1.9291 H   0  0  0  0  0  0  0  0  0  0  0  0
    1.4596    0.8779   -1.5334 H   0  0  0  0  0  0  0  0  0  0  0  0
    0.7392    1.9194    1.1052 H   0  0  0  0  0  0  0  0  0  0  0  0
   -2.5878    4.0472   -0.5558 H   0  0  0  0  0  0  0  0  0  0  0  0
   -3.5757    1.9345   -1.3331 H   0  0  0  0  0  0  0  0  0  0  0  0
   -3.2346   -0.4558   -1.8654 H   0  0  0  0  0  0  0  0  0  0  0  0
  1  2  1  0
  2  3  1  0
  3  4  2  0
  4  5  1  0
  5  6  2  0
  6  7  1  0
  7  8  2  0
  8  9  1  0
  9 10  2  0
 10  5  1  0
  4 11  1  0
 11 12  2  0
 12 13  1  0
 13 14  1  0
 13 15  2  0
 15 16  1  0
 16 17  2  0
 17 11  1  0
 17 18  1  0
 18 19  1  0
 19  2  1  0
 19 20  2  0
  1 21  1  0
  2 22  1  0
  6 23  1  0
  7 24  1  0
  8 25  1  0
  9 26  1  0
 10 27  1  0
 12 28  1  0
 15 29  1  0
 16 30  1  0
 18 31  1  0
M  END
> <ID>
HT1556

> <Class>
1.0

> <Clusters>
185

> <Fold>
2

$$$$