
     RDKit          3D

 21 21  0  0  0  0  0  0  0  0999 V2000
   -3.0971   -2.0689   -0.3694 C   0  0  0  0  0  0  0  0  0  0  0  0
   -2.2749   -0.8971    0.0481 C   0  0  0  0  0  0  0  0  0  0  0  0
   -2.8203    0.0668    0.6511 O   0  0  0  0  0  0  0  0  0  0  0  0
   -0.8946   -0.9154   -0.1886 O   0  0  0  0  0  0  0  0  0  0  0  0
   -0.0390    0.1946   -0.0928 C   0  0  0  0  0  0  0  0  0  0  0  0
   -0.4889    1.4897   -0.4160 C   0  0  0  0  0  0  0  0  0  0  0  0
    0.3794    2.5799   -0.3451 C   0  0  0  0  0  0  0  0  0  0  0  0
    1.7054    2.3929    0.0412 C   0  0  0  0  0  0  0  0  0  0  0  0
    2.1718    1.1136    0.3485 C   0  0  0  0  0  0  0  0  0  0  0  0
    1.3128    0.0012    0.2774 C   0  0  0  0  0  0  0  0  0  0  0  0
    1.8276   -1.3483    0.6196 C   0  0  0  0  0  0  0  0  0  0  0  0
    1.0582   -2.2100    1.1217 O   0  0  0  0  0  0  0  0  0  0  0  0
    3.1603   -1.6927    0.3989 O   0  0  0  0  0  0  0  0  0  0  0  0
   -3.0198   -2.2012   -1.4685 H   0  0  0  0  0  0  0  0  0  0  0  0
   -4.1635   -1.9176   -0.0975 H   0  0  0  0  0  0  0  0  0  0  0  0
   -2.7213   -2.9830    0.1356 H   0  0  0  0  0  0  0  0  0  0  0  0
   -1.5017    1.6565   -0.7561 H   0  0  0  0  0  0  0  0  0  0  0  0
    0.0248    3.5711   -0.5966 H   0  0  0  0  0  0  0  0  0  0  0  0
    2.3747    3.2414    0.1016 H   0  0  0  0  0  0  0  0  0  0  0  0
    3.2006    1.0023    0.6653 H   0  0  0  0  0  0  0  0  0  0  0  0
    3.8055   -1.0759   -0.0785 H   0  0  0  0  0  0  0  0  0  0  0  0
  1  2  1  0
  2  3  2  0
  2  4  1  0
  4  5  1  0
  5  6  2  0
  6  7  1  0
  7  8  2  0
  8  9  1  0
  9 10  2  0
 10  5  1  0
 10 11  1  0
 11 12  2  0
 11 13  1  0
  1 14  1  0
  1 15  1  0
  1 16  1  0
  6 17  1  0
  7 18  1  0
  8 19  1  0
  9 20  1  0
 13 21  1  0
M  END
> <ID>
HT0189

> <Class>
1.0

> <Clusters>
22

> <Fold>
2

$$$$