
     RDKit          3D

 52 55  0  0  0  0  0  0  0  0999 V2000
    6.4298    0.7235    0.0978 C   0  0  0  0  0  0  0  0  0  0  0  0
    5.6013   -0.0153    1.0633 N   0  0  0  0  0  0  0  0  0  0  0  0
    4.5666    0.8582    1.6696 C   0  0  0  0  0  0  0  0  0  0  0  0
    3.1888    0.6693    1.0160 C   0  0  0  0  0  0  0  0  0  0  0  0
    2.7005   -0.7282    1.1457 N   0  0  0  0  0  0  0  0  0  0  0  0
    1.7083   -1.0586    0.0978 C   0  0  0  0  0  0  0  0  0  0  0  0
    0.4218   -0.2340    0.2599 C   0  0  0  0  0  0  0  0  0  0  0  0
   -0.6619   -0.6943   -0.7236 C   0  0  0  0  0  0  0  0  0  0  0  0
   -1.8979    0.0823   -0.5351 N   0  0  0  0  0  0  0  0  0  0  0  0
   -1.9172    1.5204   -0.6787 C   0  0  0  0  0  0  0  0  0  0  0  0
   -1.2385    2.1583   -1.7321 C   0  0  0  0  0  0  0  0  0  0  0  0
   -1.3957    3.5323   -1.9395 C   0  0  0  0  0  0  0  0  0  0  0  0
   -2.2404    4.2762   -1.1108 C   0  0  0  0  0  0  0  0  0  0  0  0
   -2.9157    3.6527   -0.0583 C   0  0  0  0  0  0  0  0  0  0  0  0
   -2.7423    2.2836    0.1688 C   0  0  0  0  0  0  0  0  0  0  0  0
   -3.4924    1.5035    1.6019 S   0  0  0  0  0  0  0  0  0  0  0  0
   -4.0403    0.0696    0.6708 C   0  0  0  0  0  0  0  0  0  0  0  0
   -5.3311   -0.4328    0.8493 C   0  0  0  0  0  0  0  0  0  0  0  0
   -5.7281   -1.5951    0.1844 C   0  0  0  0  0  0  0  0  0  0  0  0
   -4.8341   -2.2717   -0.6639 C   0  0  0  0  0  0  0  0  0  0  0  0
   -3.5541   -1.7304   -0.8807 C   0  0  0  0  0  0  0  0  0  0  0  0
   -3.1445   -0.5678   -0.2053 C   0  0  0  0  0  0  0  0  0  0  0  0
   -5.2835   -3.4916   -1.4280 C   0  0  0  0  0  0  0  0  0  0  0  0
   -5.8295   -3.0972   -2.6351 F   0  0  0  0  0  0  0  0  0  0  0  0
   -6.2353   -4.1955   -0.7106 F   0  0  0  0  0  0  0  0  0  0  0  0
   -4.2137   -4.3358   -1.6707 F   0  0  0  0  0  0  0  0  0  0  0  0
    3.7992   -1.7281    1.1837 C   0  0  0  0  0  0  0  0  0  0  0  0
    5.0498   -1.2399    0.4399 C   0  0  0  0  0  0  0  0  0  0  0  0
    6.9718    1.5451    0.6133 H   0  0  0  0  0  0  0  0  0  0  0  0
    7.1959    0.0513   -0.3461 H   0  0  0  0  0  0  0  0  0  0  0  0
    5.8057    1.1532   -0.7170 H   0  0  0  0  0  0  0  0  0  0  0  0
    4.4839    0.6077    2.7492 H   0  0  0  0  0  0  0  0  0  0  0  0
    4.8510    1.9338    1.6213 H   0  0  0  0  0  0  0  0  0  0  0  0
    3.2635    0.9769   -0.0518 H   0  0  0  0  0  0  0  0  0  0  0  0
    2.4713    1.3513    1.5203 H   0  0  0  0  0  0  0  0  0  0  0  0
    2.1398   -0.9005   -0.9165 H   0  0  0  0  0  0  0  0  0  0  0  0
    1.4223   -2.1311    0.1810 H   0  0  0  0  0  0  0  0  0  0  0  0
    0.0419   -0.3442    1.2992 H   0  0  0  0  0  0  0  0  0  0  0  0
    0.6429    0.8382    0.0763 H   0  0  0  0  0  0  0  0  0  0  0  0
   -0.3038   -0.5882   -1.7691 H   0  0  0  0  0  0  0  0  0  0  0  0
   -0.8534   -1.7746   -0.5462 H   0  0  0  0  0  0  0  0  0  0  0  0
   -0.6170    1.5950   -2.4141 H   0  0  0  0  0  0  0  0  0  0  0  0
   -0.8763    4.0179   -2.7555 H   0  0  0  0  0  0  0  0  0  0  0  0
   -2.3656    5.3379   -1.2798 H   0  0  0  0  0  0  0  0  0  0  0  0
   -3.5496    4.2385    0.5951 H   0  0  0  0  0  0  0  0  0  0  0  0
   -6.0224    0.0663    1.5164 H   0  0  0  0  0  0  0  0  0  0  0  0
   -6.7348   -1.9650    0.3327 H   0  0  0  0  0  0  0  0  0  0  0  0
   -2.8954   -2.1880   -1.6079 H   0  0  0  0  0  0  0  0  0  0  0  0
    3.4904   -2.7126    0.7669 H   0  0  0  0  0  0  0  0  0  0  0  0
    4.0676   -1.9163    2.2457 H   0  0  0  0  0  0  0  0  0  0  0  0
    5.8219   -2.0386    0.4713 H   0  0  0  0  0  0  0  0  0  0  0  0
    4.7785   -1.0679   -0.6273 H   0  0  0  0  0  0  0  0  0  0  0  0
  1  2  1  0
  2  3  1  0
  3  4  1  0
  4  5  1  0
  5  6  1  0
  6  7  1  0
  7  8  1  0
  8  9  1  0
  9 10  1  0
 10 11  2  0
 11 12  1  0
 12 13  2  0
 13 14  1  0
 14 15  2  0
 15 10  1  0
 15 16  1  0
 16 17  1  0
 17 18  2  0
 18 19  1  0
 19 20  2  0
 20 21  1  0
 21 22  2  0
 22  9  1  0
 22 17  1  0
 20 23  1  0
 23 24  1  0
 23 25  1  0
 23 26  1  0
  5 27  1  0
 27 28  1  0
 28  2  1  0
  1 29  1  0
  1 30  1  0
  1 31  1  0
  3 32  1  0
  3 33  1  0
  4 34  1  0
  4 35  1  0
  6 36  1  0
  6 37  1  0
  7 38  1  0
  7 39  1  0
  8 40  1  0
  8 41  1  0
 11 42  1  0
 12 43  1  0
 13 44  1  0
 14 45  1  0
 18 46  1  0
 19 47  1  0
 21 48  1  0
 27 49  1  0
 27 50  1  0
 28 51  1  0
 28 52  1  0
M  END
> <ID>
HT2118

> <Class>
1.0

> <Clusters>
205

> <Fold>
2

$$$$