
     RDKit          3D

 28 29  0  0  0  0  0  0  0  0999 V2000
    3.4031   -1.9257   -1.1142 C   0  0  0  0  0  0  0  0  0  0  0  0
    2.9126   -0.5227   -1.2325 C   0  0  0  0  0  0  0  0  0  0  0  0
    3.2258    0.2985   -2.2088 O   0  0  0  0  0  0  0  0  0  0  0  0
    2.6500    1.4552   -2.0510 N   0  0  0  0  0  0  0  0  0  0  0  0
    1.9308    1.3726   -0.9158 C   0  0  0  0  0  0  0  0  0  0  0  0
    1.1426    2.4528   -0.4059 N   0  0  0  0  0  0  0  0  0  0  0  0
    0.1813    2.3070    1.0290 S   0  0  0  0  0  0  0  0  0  0  0  0
    1.0868    2.0294    2.1964 O   0  0  0  0  0  0  0  0  0  0  0  0
   -0.5503    3.5968    1.2712 O   0  0  0  0  0  0  0  0  0  0  0  0
   -0.9936    1.0103    0.8350 C   0  0  0  0  0  0  0  0  0  0  0  0
   -1.6085    0.8038   -0.4070 C   0  0  0  0  0  0  0  0  0  0  0  0
   -2.5343   -0.2309   -0.5703 C   0  0  0  0  0  0  0  0  0  0  0  0
   -2.8564   -1.0664    0.5086 C   0  0  0  0  0  0  0  0  0  0  0  0
   -3.8028   -2.1253    0.3417 N   0  0  0  0  0  0  0  0  0  0  0  0
   -2.2450   -0.8556    1.7527 C   0  0  0  0  0  0  0  0  0  0  0  0
   -1.3187    0.1790    1.9157 C   0  0  0  0  0  0  0  0  0  0  0  0
    2.0687    0.1191   -0.3526 C   0  0  0  0  0  0  0  0  0  0  0  0
    4.0679   -2.1689   -1.9692 H   0  0  0  0  0  0  0  0  0  0  0  0
    3.9709   -2.0439   -0.1678 H   0  0  0  0  0  0  0  0  0  0  0  0
    2.5402   -2.6239   -1.1151 H   0  0  0  0  0  0  0  0  0  0  0  0
    1.1259    3.3577   -0.9264 H   0  0  0  0  0  0  0  0  0  0  0  0
   -1.3694    1.4414   -1.2487 H   0  0  0  0  0  0  0  0  0  0  0  0
   -3.0000   -0.3816   -1.5361 H   0  0  0  0  0  0  0  0  0  0  0  0
   -4.0494   -2.7526    1.1396 H   0  0  0  0  0  0  0  0  0  0  0  0
   -4.2635   -2.2899   -0.5811 H   0  0  0  0  0  0  0  0  0  0  0  0
   -2.4860   -1.4923    2.5947 H   0  0  0  0  0  0  0  0  0  0  0  0
   -0.8560    0.3291    2.8826 H   0  0  0  0  0  0  0  0  0  0  0  0
    1.6274   -0.2730    0.5539 H   0  0  0  0  0  0  0  0  0  0  0  0
  1  2  1  0
  2  3  1  0
  3  4  1  0
  4  5  2  0
  5  6  1  0
  6  7  1  0
  7  8  2  0
  7  9  2  0
  7 10  1  0
 10 11  2  0
 11 12  1  0
 12 13  2  0
 13 14  1  0
 13 15  1  0
 15 16  2  0
 16 10  1  0
  5 17  1  0
 17  2  2  0
  1 18  1  0
  1 19  1  0
  1 20  1  0
  6 21  1  0
 11 22  1  0
 12 23  1  0
 14 24  1  0
 14 25  1  0
 15 26  1  0
 16 27  1  0
 17 28  1  0
M  END
> <ID>
HT1945

> <Class>
1.0

> <Clusters>
220

> <Fold>
2

$$$$