
     RDKit          3D

 22 23  0  0  0  0  0  0  0  0999 V2000
   -3.7185    0.6935   -0.6174 N   0  0  0  0  0  0  0  0  0  0  0  0
   -3.1528   -0.1839    0.7622 S   0  0  0  0  0  0  0  0  0  0  0  0
   -3.0863    0.7337    1.9508 O   0  0  0  0  0  0  0  0  0  0  0  0
   -4.1134   -1.3005    1.0584 O   0  0  0  0  0  0  0  0  0  0  0  0
   -1.5372   -0.8814    0.4358 C   0  0  0  0  0  0  0  0  0  0  0  0
   -0.4661    0.1608    0.2817 C   0  0  0  0  0  0  0  0  0  0  0  0
   -0.6355    1.4997    0.4178 N   0  0  0  0  0  0  0  0  0  0  0  0
    0.5250    2.0682    0.2182 O   0  0  0  0  0  0  0  0  0  0  0  0
    1.4346    1.1609   -0.0381 C   0  0  0  0  0  0  0  0  0  0  0  0
    2.7892    1.3368   -0.3060 C   0  0  0  0  0  0  0  0  0  0  0  0
    3.5599    0.1831   -0.5502 C   0  0  0  0  0  0  0  0  0  0  0  0
    2.9617   -1.0990   -0.5199 C   0  0  0  0  0  0  0  0  0  0  0  0
    1.5875   -1.2393   -0.2454 C   0  0  0  0  0  0  0  0  0  0  0  0
    0.8587   -0.0755   -0.0097 C   0  0  0  0  0  0  0  0  0  0  0  0
   -3.6040    0.0685   -1.4465 H   0  0  0  0  0  0  0  0  0  0  0  0
   -3.0771    1.5049   -0.7589 H   0  0  0  0  0  0  0  0  0  0  0  0
   -1.5941   -1.4836   -0.4951 H   0  0  0  0  0  0  0  0  0  0  0  0
   -1.2644   -1.5563    1.2740 H   0  0  0  0  0  0  0  0  0  0  0  0
    3.2337    2.3232   -0.3256 H   0  0  0  0  0  0  0  0  0  0  0  0
    4.6168    0.2784   -0.7622 H   0  0  0  0  0  0  0  0  0  0  0  0
    3.5641   -1.9780   -0.7088 H   0  0  0  0  0  0  0  0  0  0  0  0
    1.1181   -2.2142   -0.2193 H   0  0  0  0  0  0  0  0  0  0  0  0
  1  2  1  0
  2  3  2  0
  2  4  2  0
  2  5  1  0
  5  6  1  0
  6  7  2  0
  7  8  1  0
  8  9  1  0
  9 10  2  0
 10 11  1  0
 11 12  2  0
 12 13  1  0
 13 14  2  0
 14  6  1  0
 14  9  1  0
  1 15  1  0
  1 16  1  0
  5 17  1  0
  5 18  1  0
 10 19  1  0
 11 20  1  0
 12 21  1  0
 13 22  1  0
M  END
> <ID>
HT2222

> <Class>
1.0

> <Clusters>
238

> <Fold>
2

$$$$