
     RDKit          3D

 56 59  0  0  0  0  0  0  0  0999 V2000
    4.9769   -2.3364    2.8315 C   0  0  0  0  0  0  0  0  0  0  0  0
    3.9416   -2.8946    1.8629 C   0  0  0  0  0  0  0  0  0  0  0  0
    4.6082   -2.9870    0.1629 S   0  0  0  0  0  0  0  0  0  0  0  0
    4.3406   -1.2504   -0.2163 C   0  0  0  0  0  0  0  0  0  0  0  0
    5.3969   -0.3411   -0.1174 C   0  0  0  0  0  0  0  0  0  0  0  0
    5.1992    0.9979   -0.4585 C   0  0  0  0  0  0  0  0  0  0  0  0
    3.9406    1.4344   -0.8851 C   0  0  0  0  0  0  0  0  0  0  0  0
    3.7664    3.0834   -1.5529 S   0  0  0  0  0  0  0  0  0  0  0  0
    2.2362    3.3897   -0.6813 C   0  0  0  0  0  0  0  0  0  0  0  0
    2.0261    4.6388   -0.0868 C   0  0  0  0  0  0  0  0  0  0  0  0
    0.7732    4.9622    0.4349 C   0  0  0  0  0  0  0  0  0  0  0  0
   -0.2765    4.0457    0.3478 C   0  0  0  0  0  0  0  0  0  0  0  0
   -0.0663    2.7874   -0.2235 C   0  0  0  0  0  0  0  0  0  0  0  0
    1.2078    2.4251   -0.7138 C   0  0  0  0  0  0  0  0  0  0  0  0
    1.5045    1.0668   -1.1441 N   0  0  0  0  0  0  0  0  0  0  0  0
    0.4386    0.2148   -1.7043 C   0  0  0  0  0  0  0  0  0  0  0  0
   -0.3300   -0.5445   -0.5991 C   0  0  0  0  0  0  0  0  0  0  0  0
   -1.7950   -0.7781   -0.9847 C   0  0  0  0  0  0  0  0  0  0  0  0
   -2.4815   -1.5068    0.1057 N   0  0  0  0  0  0  0  0  0  0  0  0
   -3.4196   -2.5393   -0.3806 C   0  0  0  0  0  0  0  0  0  0  0  0
   -4.7108   -1.9172   -0.9232 C   0  0  0  0  0  0  0  0  0  0  0  0
   -5.3587   -1.1167    0.1310 N   0  0  0  0  0  0  0  0  0  0  0  0
   -6.6233   -0.5550   -0.3734 C   0  0  0  0  0  0  0  0  0  0  0  0
   -4.4616   -0.0322    0.5719 C   0  0  0  0  0  0  0  0  0  0  0  0
   -3.1281   -0.6079    1.0875 C   0  0  0  0  0  0  0  0  0  0  0  0
    2.8455    0.5475   -0.9230 C   0  0  0  0  0  0  0  0  0  0  0  0
    3.0764   -0.8124   -0.6294 C   0  0  0  0  0  0  0  0  0  0  0  0
    5.9026   -2.9489    2.7983 H   0  0  0  0  0  0  0  0  0  0  0  0
    4.5686   -2.3620    3.8634 H   0  0  0  0  0  0  0  0  0  0  0  0
    5.2195   -1.2830    2.5776 H   0  0  0  0  0  0  0  0  0  0  0  0
    3.6712   -3.9242    2.1818 H   0  0  0  0  0  0  0  0  0  0  0  0
    3.0196   -2.2751    1.8901 H   0  0  0  0  0  0  0  0  0  0  0  0
    6.3785   -0.6764    0.1944 H   0  0  0  0  0  0  0  0  0  0  0  0
    6.0355    1.6846   -0.4341 H   0  0  0  0  0  0  0  0  0  0  0  0
    2.8215    5.3735   -0.0629 H   0  0  0  0  0  0  0  0  0  0  0  0
    0.6086    5.9328    0.8847 H   0  0  0  0  0  0  0  0  0  0  0  0
   -1.2520    4.3042    0.7378 H   0  0  0  0  0  0  0  0  0  0  0  0
   -0.9004    2.1038   -0.2551 H   0  0  0  0  0  0  0  0  0  0  0  0
   -0.2540    0.8525   -2.2974 H   0  0  0  0  0  0  0  0  0  0  0  0
    0.8704   -0.5136   -2.4255 H   0  0  0  0  0  0  0  0  0  0  0  0
   -0.2790    0.0090    0.3631 H   0  0  0  0  0  0  0  0  0  0  0  0
    0.1308   -1.5381   -0.4212 H   0  0  0  0  0  0  0  0  0  0  0  0
   -2.2862    0.1948   -1.1984 H   0  0  0  0  0  0  0  0  0  0  0  0
   -1.8050   -1.3638   -1.9328 H   0  0  0  0  0  0  0  0  0  0  0  0
   -3.6734   -3.2222    0.4607 H   0  0  0  0  0  0  0  0  0  0  0  0
   -2.9417   -3.1713   -1.1622 H   0  0  0  0  0  0  0  0  0  0  0  0
   -5.3862   -2.7441   -1.2389 H   0  0  0  0  0  0  0  0  0  0  0  0
   -4.4838   -1.2941   -1.8187 H   0  0  0  0  0  0  0  0  0  0  0  0
   -7.1131    0.0620    0.4135 H   0  0  0  0  0  0  0  0  0  0  0  0
   -7.3258   -1.3775   -0.6330 H   0  0  0  0  0  0  0  0  0  0  0  0
   -6.4559    0.0779   -1.2753 H   0  0  0  0  0  0  0  0  0  0  0  0
   -4.9361    0.5241    1.4090 H   0  0  0  0  0  0  0  0  0  0  0  0
   -4.2800    0.6944   -0.2502 H   0  0  0  0  0  0  0  0  0  0  0  0
   -2.4472    0.2273    1.3627 H   0  0  0  0  0  0  0  0  0  0  0  0
   -3.3219   -1.1800    2.0204 H   0  0  0  0  0  0  0  0  0  0  0  0
    2.2873   -1.5408   -0.6904 H   0  0  0  0  0  0  0  0  0  0  0  0
  1  2  1  0
  2  3  1  0
  3  4  1  0
  4  5  2  0
  5  6  1  0
  6  7  2  0
  7  8  1  0
  8  9  1  0
  9 10  2  0
 10 11  1  0
 11 12  2  0
 12 13  1  0
 13 14  2  0
 14  9  1  0
 14 15  1  0
 15 16  1  0
 16 17  1  0
 17 18  1  0
 18 19  1  0
 19 20  1  0
 20 21  1  0
 21 22  1  0
 22 23  1  0
 22 24  1  0
 24 25  1  0
 25 19  1  0
 15 26  1  0
 26  7  1  0
 26 27  2  0
 27  4  1  0
  1 28  1  0
  1 29  1  0
  1 30  1  0
  2 31  1  0
  2 32  1  0
  5 33  1  0
  6 34  1  0
 10 35  1  0
 11 36  1  0
 12 37  1  0
 13 38  1  0
 16 39  1  0
 16 40  1  0
 17 41  1  0
 17 42  1  0
 18 43  1  0
 18 44  1  0
 20 45  1  0
 20 46  1  0
 21 47  1  0
 21 48  1  0
 23 49  1  0
 23 50  1  0
 23 51  1  0
 24 52  1  0
 24 53  1  0
 25 54  1  0
 25 55  1  0
 27 56  1  0
M  END
> <ID>
HT2040

> <Class>
1.0

> <Clusters>
205

> <Fold>
2

$$$$