
     RDKit          3D

 39 39  0  0  0  0  0  0  0  0999 V2000
    6.5286   -1.7564    0.1736 O   0  0  0  0  0  0  0  0  0  0  0  0
    5.8076   -0.6691   -0.1904 N   0  0  0  0  0  0  0  0  0  0  0  0
    5.6202    0.4175    0.7204 C   0  0  0  0  0  0  0  0  0  0  0  0
    6.1265    0.3654    1.8734 O   0  0  0  0  0  0  0  0  0  0  0  0
    4.7967    1.6087    0.3246 C   0  0  0  0  0  0  0  0  0  0  0  0
    3.3760    1.5383    0.9007 C   0  0  0  0  0  0  0  0  0  0  0  0
    2.5354    0.4313    0.2414 C   0  0  0  0  0  0  0  0  0  0  0  0
    1.1292    0.3141    0.8501 C   0  0  0  0  0  0  0  0  0  0  0  0
    0.2193    1.4971    0.4735 C   0  0  0  0  0  0  0  0  0  0  0  0
   -1.2297    1.2833    0.9443 C   0  0  0  0  0  0  0  0  0  0  0  0
   -2.0114    0.2962    0.1151 C   0  0  0  0  0  0  0  0  0  0  0  0
   -1.4928   -0.2441   -0.9005 O   0  0  0  0  0  0  0  0  0  0  0  0
   -3.3501   -0.0409    0.5107 N   0  0  0  0  0  0  0  0  0  0  0  0
   -4.2629   -0.8044   -0.2964 C   0  0  0  0  0  0  0  0  0  0  0  0
   -5.1898   -1.6533    0.3293 C   0  0  0  0  0  0  0  0  0  0  0  0
   -6.1027   -2.3893   -0.4326 C   0  0  0  0  0  0  0  0  0  0  0  0
   -6.1079   -2.2718   -1.8247 C   0  0  0  0  0  0  0  0  0  0  0  0
   -5.2058   -1.4119   -2.4562 C   0  0  0  0  0  0  0  0  0  0  0  0
   -4.2905   -0.6748   -1.6979 C   0  0  0  0  0  0  0  0  0  0  0  0
    7.4543   -1.5568   -0.1194 H   0  0  0  0  0  0  0  0  0  0  0  0
    5.3645   -0.6449   -1.1361 H   0  0  0  0  0  0  0  0  0  0  0  0
    4.7547    1.6974   -0.7827 H   0  0  0  0  0  0  0  0  0  0  0  0
    5.2935    2.5261    0.7083 H   0  0  0  0  0  0  0  0  0  0  0  0
    2.8926    2.5220    0.7237 H   0  0  0  0  0  0  0  0  0  0  0  0
    3.4259    1.3757    2.0000 H   0  0  0  0  0  0  0  0  0  0  0  0
    2.4582    0.6135   -0.8529 H   0  0  0  0  0  0  0  0  0  0  0  0
    3.0460   -0.5453    0.3841 H   0  0  0  0  0  0  0  0  0  0  0  0
    1.2041    0.2343    1.9568 H   0  0  0  0  0  0  0  0  0  0  0  0
    0.6780   -0.6312    0.4804 H   0  0  0  0  0  0  0  0  0  0  0  0
    0.2398    1.6732   -0.6244 H   0  0  0  0  0  0  0  0  0  0  0  0
    0.6011    2.4160    0.9666 H   0  0  0  0  0  0  0  0  0  0  0  0
   -1.7619    2.2577    0.9014 H   0  0  0  0  0  0  0  0  0  0  0  0
   -1.2298    0.9506    2.0050 H   0  0  0  0  0  0  0  0  0  0  0  0
   -3.6474    0.2129    1.4803 H   0  0  0  0  0  0  0  0  0  0  0  0
   -5.1969   -1.7514    1.4076 H   0  0  0  0  0  0  0  0  0  0  0  0
   -6.8075   -3.0490    0.0568 H   0  0  0  0  0  0  0  0  0  0  0  0
   -6.8165   -2.8402   -2.4132 H   0  0  0  0  0  0  0  0  0  0  0  0
   -5.2218   -1.3092   -3.5335 H   0  0  0  0  0  0  0  0  0  0  0  0
   -3.6269    0.0125   -2.2051 H   0  0  0  0  0  0  0  0  0  0  0  0
  1  2  1  0
  2  3  1  0
  3  4  2  0
  3  5  1  0
  5  6  1  0
  6  7  1  0
  7  8  1  0
  8  9  1  0
  9 10  1  0
 10 11  1  0
 11 12  2  0
 11 13  1  0
 13 14  1  0
 14 15  2  0
 15 16  1  0
 16 17  2  0
 17 18  1  0
 18 19  2  0
 19 14  1  0
  1 20  1  0
  2 21  1  0
  5 22  1  0
  5 23  1  0
  6 24  1  0
  6 25  1  0
  7 26  1  0
  7 27  1  0
  8 28  1  0
  8 29  1  0
  9 30  1  0
  9 31  1  0
 10 32  1  0
 10 33  1  0
 13 34  1  0
 15 35  1  0
 16 36  1  0
 17 37  1  0
 18 38  1  0
 19 39  1  0
M  END
> <ID>
HT2195

> <Class>
1.0

> <Clusters>
252

> <Fold>
2

$$$$