
     RDKit          3D

 21 21  0  0  0  0  0  0  0  0999 V2000
    2.7275   -2.6252    0.3232 O   0  0  0  0  0  0  0  0  0  0  0  0
    2.2163   -1.4841    0.1685 C   0  0  0  0  0  0  0  0  0  0  0  0
    2.9683   -0.3670    0.3654 N   0  0  0  0  0  0  0  0  0  0  0  0
    0.8761   -1.3657   -0.2033 C   0  0  0  0  0  0  0  0  0  0  0  0
    0.3392   -0.0846   -0.3728 C   0  0  0  0  0  0  0  0  0  0  0  0
   -1.1049    0.1016   -0.7370 C   0  0  0  0  0  0  0  0  0  0  0  0
    1.1236    1.0040   -0.1536 N   0  0  0  0  0  0  0  0  0  0  0  0
   -1.9787    0.1160    0.5209 C   0  0  0  0  0  0  0  0  0  0  0  0
    2.4264    0.8714    0.2076 C   0  0  0  0  0  0  0  0  0  0  0  0
   -3.4498    0.3139    0.1679 C   0  0  0  0  0  0  0  0  0  0  0  0
    3.4210    2.3329    0.4777 S   0  0  0  0  0  0  0  0  0  0  0  0
    3.9715   -0.4600    0.6438 H   0  0  0  0  0  0  0  0  0  0  0  0
    0.2662   -2.2486   -0.3548 H   0  0  0  0  0  0  0  0  0  0  0  0
   -1.2231    1.0617   -1.2856 H   0  0  0  0  0  0  0  0  0  0  0  0
   -1.4307   -0.7179   -1.4150 H   0  0  0  0  0  0  0  0  0  0  0  0
   -1.6552    0.9415    1.1924 H   0  0  0  0  0  0  0  0  0  0  0  0
   -1.8662   -0.8464    1.0669 H   0  0  0  0  0  0  0  0  0  0  0  0
   -4.0575    0.3198    1.0972 H   0  0  0  0  0  0  0  0  0  0  0  0
   -3.8048   -0.5131   -0.4834 H   0  0  0  0  0  0  0  0  0  0  0  0
   -3.5938    1.2823   -0.3569 H   0  0  0  0  0  0  0  0  0  0  0  0
    3.8288    2.3674   -0.8689 H   0  0  0  0  0  0  0  0  0  0  0  0
  1  2  2  0
  2  3  1  0
  4  2  1  0
  5  4  2  0
  6  5  1  0
  7  5  1  0
  8  6  1  0
  9  7  2  0
 10  8  1  0
  3  9  1  0
  9 11  1  0
  3 12  1  0
  4 13  1  0
  6 14  1  0
  6 15  1  0
  8 16  1  0
  8 17  1  0
 10 18  1  0
 10 19  1  0
 10 20  1  0
 11 21  1  0
M  END
> <ID>
HT1768

> <Class>
1.0

> <Clusters>
209

> <Fold>
2

$$$$