
     RDKit          3D

 42 44  0  0  0  0  0  0  0  0999 V2000
    6.0184    2.7958    0.4587 O   0  0  0  0  0  0  0  0  0  0  0  0
    6.2283    2.0987   -0.7282 C   0  0  0  0  0  0  0  0  0  0  0  0
    6.9826    2.5922   -1.6086 O   0  0  0  0  0  0  0  0  0  0  0  0
    5.5157    0.8244   -0.9694 C   0  0  0  0  0  0  0  0  0  0  0  0
    4.2278    0.6674   -0.4250 C   0  0  0  0  0  0  0  0  0  0  0  0
    3.4738   -0.4913   -0.6803 C   0  0  0  0  0  0  0  0  0  0  0  0
    4.0133   -1.4975   -1.4842 C   0  0  0  0  0  0  0  0  0  0  0  0
    5.2970   -1.3646   -2.0138 C   0  0  0  0  0  0  0  0  0  0  0  0
    6.0650   -0.2254   -1.7487 C   0  0  0  0  0  0  0  0  0  0  0  0
    7.3699   -0.1928   -2.2457 O   0  0  0  0  0  0  0  0  0  0  0  0
    2.1560   -0.6654   -0.1455 N   0  0  0  0  0  0  0  0  0  0  0  0
    1.6025    0.2103    0.5937 N   0  0  0  0  0  0  0  0  0  0  0  0
    0.2848    0.0351    1.1276 C   0  0  0  0  0  0  0  0  0  0  0  0
   -0.4714   -1.1214    0.8639 C   0  0  0  0  0  0  0  0  0  0  0  0
   -1.7551   -1.2594    1.4000 C   0  0  0  0  0  0  0  0  0  0  0  0
   -2.2986   -0.2457    2.1995 C   0  0  0  0  0  0  0  0  0  0  0  0
   -1.5442    0.9042    2.4675 C   0  0  0  0  0  0  0  0  0  0  0  0
   -0.2600    1.0428    1.9325 C   0  0  0  0  0  0  0  0  0  0  0  0
   -3.9217   -0.4211    2.8591 S   0  0  0  0  0  0  0  0  0  0  0  0
   -3.8470   -1.2425    4.1149 O   0  0  0  0  0  0  0  0  0  0  0  0
   -4.5102    0.9226    3.1882 O   0  0  0  0  0  0  0  0  0  0  0  0
   -4.9478   -1.2232    1.7116 N   0  0  0  0  0  0  0  0  0  0  0  0
   -5.1747   -0.7613    0.3706 C   0  0  0  0  0  0  0  0  0  0  0  0
   -4.6855    0.4762   -0.0874 C   0  0  0  0  0  0  0  0  0  0  0  0
   -4.9340    0.8680   -1.4044 C   0  0  0  0  0  0  0  0  0  0  0  0
   -5.6656    0.0364   -2.2521 C   0  0  0  0  0  0  0  0  0  0  0  0
   -6.1420   -1.1818   -1.7665 C   0  0  0  0  0  0  0  0  0  0  0  0
   -5.8890   -1.5482   -0.4818 N   0  0  0  0  0  0  0  0  0  0  0  0
    6.4810    3.6804    0.6314 H   0  0  0  0  0  0  0  0  0  0  0  0
    3.8008    1.4605    0.1768 H   0  0  0  0  0  0  0  0  0  0  0  0
    3.4396   -2.3921   -1.6926 H   0  0  0  0  0  0  0  0  0  0  0  0
    5.7086   -2.1641   -2.6170 H   0  0  0  0  0  0  0  0  0  0  0  0
    8.0550    0.4976   -1.9715 H   0  0  0  0  0  0  0  0  0  0  0  0
   -0.0723   -1.9155    0.2461 H   0  0  0  0  0  0  0  0  0  0  0  0
   -2.3259   -2.1548    1.1891 H   0  0  0  0  0  0  0  0  0  0  0  0
   -1.9483    1.6938    3.0878 H   0  0  0  0  0  0  0  0  0  0  0  0
    0.3128    1.9371    2.1443 H   0  0  0  0  0  0  0  0  0  0  0  0
   -5.3795   -2.1277    2.0051 H   0  0  0  0  0  0  0  0  0  0  0  0
   -4.1232    1.1387    0.5542 H   0  0  0  0  0  0  0  0  0  0  0  0
   -4.5610    1.8172   -1.7669 H   0  0  0  0  0  0  0  0  0  0  0  0
   -5.8632    0.3334   -3.2740 H   0  0  0  0  0  0  0  0  0  0  0  0
   -6.7127   -1.8372   -2.4106 H   0  0  0  0  0  0  0  0  0  0  0  0
  1  2  1  0
  2  3  2  0
  2  4  1  0
  4  5  2  0
  5  6  1  0
  6  7  2  0
  7  8  1  0
  8  9  2  0
  9  4  1  0
  9 10  1  0
  6 11  1  0
 11 12  2  3
 12 13  1  0
 13 14  2  0
 14 15  1  0
 15 16  2  0
 16 17  1  0
 17 18  2  0
 18 13  1  0
 16 19  1  0
 19 20  2  0
 19 21  2  0
 19 22  1  0
 22 23  1  0
 23 24  2  0
 24 25  1  0
 25 26  2  0
 26 27  1  0
 27 28  2  0
 28 23  1  0
  1 29  1  0
  5 30  1  0
  7 31  1  0
  8 32  1  0
 10 33  1  0
 14 34  1  0
 15 35  1  0
 17 36  1  0
 18 37  1  0
 22 38  1  0
 24 39  1  0
 25 40  1  0
 26 41  1  0
 27 42  1  0
M  END
> <ID>
HT1952

> <Class>
1.0

> <Clusters>
27

> <Fold>
2

$$$$