
     RDKit          3D

 65 68  0  0  0  0  0  0  0  0999 V2000
   -3.7108   -3.3864    1.7798 C   0  0  0  0  0  0  0  0  0  0  0  0
   -3.4183   -3.5915    0.2972 C   0  0  0  0  0  0  0  0  0  0  0  0
   -2.8272   -2.3477   -0.3048 C   0  0  0  0  0  0  0  0  0  0  0  0
   -1.6299   -1.8460    0.0766 N   0  0  0  0  0  0  0  0  0  0  0  0
   -1.4406   -0.7528   -0.6465 N   0  0  0  0  0  0  0  0  0  0  0  0
   -0.2334    0.0672   -0.5976 C   0  0  0  0  0  0  0  0  0  0  0  0
    0.8537   -0.5498   -1.4836 C   0  0  0  0  0  0  0  0  0  0  0  0
    2.1153    0.3218   -1.5401 C   0  0  0  0  0  0  0  0  0  0  0  0
    2.6879    0.5210   -0.1883 N   0  0  0  0  0  0  0  0  0  0  0  0
    3.3442    1.8373   -0.0302 C   0  0  0  0  0  0  0  0  0  0  0  0
    4.6784    1.8983   -0.7787 C   0  0  0  0  0  0  0  0  0  0  0  0
    5.5210    0.7852   -0.3387 N   0  0  0  0  0  0  0  0  0  0  0  0
    4.9534   -0.5620   -0.4227 C   0  0  0  0  0  0  0  0  0  0  0  0
    3.5685   -0.5892    0.2480 C   0  0  0  0  0  0  0  0  0  0  0  0
    6.8628    0.9998    0.1412 C   0  0  0  0  0  0  0  0  0  0  0  0
    7.9166    0.1840   -0.3077 C   0  0  0  0  0  0  0  0  0  0  0  0
    9.2164    0.3842    0.1662 C   0  0  0  0  0  0  0  0  0  0  0  0
    9.4764    1.3970    1.0929 C   0  0  0  0  0  0  0  0  0  0  0  0
    8.4355    2.2124    1.5489 C   0  0  0  0  0  0  0  0  0  0  0  0
    8.7606    3.4767    2.7206 Cl  0  0  0  0  0  0  0  0  0  0  0  0
    7.1328    2.0148    1.0765 C   0  0  0  0  0  0  0  0  0  0  0  0
   -2.4983   -0.6092   -1.4632 C   0  0  0  0  0  0  0  0  0  0  0  0
   -2.6321    0.3299   -2.2937 O   0  0  0  0  0  0  0  0  0  0  0  0
   -3.3951   -1.5964   -1.2821 N   0  0  0  0  0  0  0  0  0  0  0  0
   -4.6984   -1.7477   -1.9353 C   0  0  0  0  0  0  0  0  0  0  0  0
   -5.8203   -1.2572   -1.0231 C   0  0  0  0  0  0  0  0  0  0  0  0
   -5.5843    0.0998   -0.6541 O   0  0  0  0  0  0  0  0  0  0  0  0
   -6.4070    0.8414    0.2055 C   0  0  0  0  0  0  0  0  0  0  0  0
   -7.6002    0.3215    0.7460 C   0  0  0  0  0  0  0  0  0  0  0  0
   -8.3831    1.1024    1.6027 C   0  0  0  0  0  0  0  0  0  0  0  0
   -7.9836    2.4008    1.9288 C   0  0  0  0  0  0  0  0  0  0  0  0
   -6.8018    2.9222    1.3958 C   0  0  0  0  0  0  0  0  0  0  0  0
   -6.0186    2.1457    0.5360 C   0  0  0  0  0  0  0  0  0  0  0  0
   -2.7729   -3.1662    2.3331 H   0  0  0  0  0  0  0  0  0  0  0  0
   -4.1614   -4.3096    2.2011 H   0  0  0  0  0  0  0  0  0  0  0  0
   -4.4237   -2.5458    1.9199 H   0  0  0  0  0  0  0  0  0  0  0  0
   -4.3579   -3.8777   -0.2160 H   0  0  0  0  0  0  0  0  0  0  0  0
   -2.6972   -4.4276    0.1756 H   0  0  0  0  0  0  0  0  0  0  0  0
   -0.4637    1.0998   -0.9401 H   0  0  0  0  0  0  0  0  0  0  0  0
    0.1221    0.1262    0.4539 H   0  0  0  0  0  0  0  0  0  0  0  0
    1.1040   -1.5654   -1.1111 H   0  0  0  0  0  0  0  0  0  0  0  0
    0.4574   -0.6616   -2.5165 H   0  0  0  0  0  0  0  0  0  0  0  0
    2.8494   -0.1475   -2.2283 H   0  0  0  0  0  0  0  0  0  0  0  0
    1.8284    1.2936   -2.0007 H   0  0  0  0  0  0  0  0  0  0  0  0
    3.5285    2.0234    1.0506 H   0  0  0  0  0  0  0  0  0  0  0  0
    2.6757    2.6545   -0.3802 H   0  0  0  0  0  0  0  0  0  0  0  0
    5.1680    2.8789   -0.5990 H   0  0  0  0  0  0  0  0  0  0  0  0
    4.5004    1.8134   -1.8720 H   0  0  0  0  0  0  0  0  0  0  0  0
    5.6057   -1.2986    0.0948 H   0  0  0  0  0  0  0  0  0  0  0  0
    4.8806   -0.8670   -1.4870 H   0  0  0  0  0  0  0  0  0  0  0  0
    3.0890   -1.5722    0.0572 H   0  0  0  0  0  0  0  0  0  0  0  0
    3.7082   -0.5179    1.3487 H   0  0  0  0  0  0  0  0  0  0  0  0
    7.7329   -0.5984   -1.0332 H   0  0  0  0  0  0  0  0  0  0  0  0
   10.0231   -0.2456   -0.1865 H   0  0  0  0  0  0  0  0  0  0  0  0
   10.4848    1.5457    1.4574 H   0  0  0  0  0  0  0  0  0  0  0  0
    6.3307    2.6368    1.4536 H   0  0  0  0  0  0  0  0  0  0  0  0
   -4.8673   -2.8117   -2.2042 H   0  0  0  0  0  0  0  0  0  0  0  0
   -4.7178   -1.1658   -2.8824 H   0  0  0  0  0  0  0  0  0  0  0  0
   -6.7879   -1.3357   -1.5649 H   0  0  0  0  0  0  0  0  0  0  0  0
   -5.8638   -1.8916   -0.1121 H   0  0  0  0  0  0  0  0  0  0  0  0
   -7.9309   -0.6803    0.5099 H   0  0  0  0  0  0  0  0  0  0  0  0
   -9.2997    0.6998    2.0145 H   0  0  0  0  0  0  0  0  0  0  0  0
   -8.5896    3.0024    2.5942 H   0  0  0  0  0  0  0  0  0  0  0  0
   -6.4916    3.9275    1.6493 H   0  0  0  0  0  0  0  0  0  0  0  0
   -5.1039    2.5565    0.1280 H   0  0  0  0  0  0  0  0  0  0  0  0
  1  2  1  0
  2  3  1  0
  3  4  2  0
  4  5  1  0
  5  6  1  0
  6  7  1  0
  7  8  1  0
  8  9  1  0
  9 10  1  0
 10 11  1  0
 11 12  1  0
 12 13  1  0
 13 14  1  0
 14  9  1  0
 12 15  1  0
 15 16  2  0
 16 17  1  0
 17 18  2  0
 18 19  1  0
 19 20  1  0
 19 21  2  0
 21 15  1  0
  5 22  1  0
 22 23  2  0
 22 24  1  0
 24  3  1  0
 24 25  1  0
 25 26  1  0
 26 27  1  0
 27 28  1  0
 28 29  2  0
 29 30  1  0
 30 31  2  0
 31 32  1  0
 32 33  2  0
 33 28  1  0
  1 34  1  0
  1 35  1  0
  1 36  1  0
  2 37  1  0
  2 38  1  0
  6 39  1  0
  6 40  1  0
  7 41  1  0
  7 42  1  0
  8 43  1  0
  8 44  1  0
 10 45  1  0
 10 46  1  0
 11 47  1  0
 11 48  1  0
 13 49  1  0
 13 50  1  0
 14 51  1  0
 14 52  1  0
 16 53  1  0
 17 54  1  0
 18 55  1  0
 21 56  1  0
 25 57  1  0
 25 58  1  0
 26 59  1  0
 26 60  1  0
 29 61  1  0
 30 62  1  0
 31 63  1  0
 32 64  1  0
 33 65  1  0
M  END
> <ID>
HT1470

> <Class>
1.0

> <Clusters>
205

> <Fold>
2

$$$$