
     RDKit          3D

 41 43  0  0  0  0  0  0  0  0999 V2000
    5.7968    0.0706    0.6997 C   0  0  0  0  0  0  0  0  0  0  0  0
    4.5693   -0.3660    0.0326 N   0  0  0  0  0  0  0  0  0  0  0  0
    3.4402    0.4761    0.4435 C   0  0  0  0  0  0  0  0  0  0  0  0
    2.1417   -0.0564   -0.1692 C   0  0  0  0  0  0  0  0  0  0  0  0
    0.9363    0.7992    0.2567 C   0  0  0  0  0  0  0  0  0  0  0  0
   -0.3975    0.2797   -0.3471 C   0  0  0  0  0  0  0  0  0  0  0  0
   -1.5671    1.2404   -0.2108 C   0  0  0  0  0  0  0  0  0  0  0  0
   -1.5820    2.2725    0.7536 C   0  0  0  0  0  0  0  0  0  0  0  0
   -2.6543    3.1630    0.8270 C   0  0  0  0  0  0  0  0  0  0  0  0
   -3.7283    3.0399   -0.0509 C   0  0  0  0  0  0  0  0  0  0  0  0
   -3.7455    2.0119   -0.9929 C   0  0  0  0  0  0  0  0  0  0  0  0
   -2.6896    1.0887   -1.0656 C   0  0  0  0  0  0  0  0  0  0  0  0
   -2.7877    0.0063   -2.0773 C   0  0  0  0  0  0  0  0  0  0  0  0
   -2.3930   -1.2646   -1.8967 C   0  0  0  0  0  0  0  0  0  0  0  0
   -1.8006   -1.8092   -0.6493 C   0  0  0  0  0  0  0  0  0  0  0  0
   -2.1842   -3.1018   -0.2564 C   0  0  0  0  0  0  0  0  0  0  0  0
   -1.7022   -3.6575    0.9278 C   0  0  0  0  0  0  0  0  0  0  0  0
   -0.8310   -2.9302    1.7344 C   0  0  0  0  0  0  0  0  0  0  0  0
   -0.4159   -1.6550    1.3481 C   0  0  0  0  0  0  0  0  0  0  0  0
   -0.8605   -1.0887    0.1323 C   0  0  0  0  0  0  0  0  0  0  0  0
    6.6450   -0.5590    0.3574 H   0  0  0  0  0  0  0  0  0  0  0  0
    5.7024   -0.0507    1.8003 H   0  0  0  0  0  0  0  0  0  0  0  0
    6.0251    1.1323    0.4573 H   0  0  0  0  0  0  0  0  0  0  0  0
    4.7122   -0.2398   -0.9973 H   0  0  0  0  0  0  0  0  0  0  0  0
    3.3424    0.4615    1.5525 H   0  0  0  0  0  0  0  0  0  0  0  0
    3.6039    1.5268    0.1111 H   0  0  0  0  0  0  0  0  0  0  0  0
    2.2295   -0.0422   -1.2777 H   0  0  0  0  0  0  0  0  0  0  0  0
    2.0000   -1.1096    0.1528 H   0  0  0  0  0  0  0  0  0  0  0  0
    1.1088    1.8333   -0.1165 H   0  0  0  0  0  0  0  0  0  0  0  0
    0.8858    0.8592    1.3633 H   0  0  0  0  0  0  0  0  0  0  0  0
   -0.1776    0.1976   -1.4356 H   0  0  0  0  0  0  0  0  0  0  0  0
   -0.7712    2.4051    1.4545 H   0  0  0  0  0  0  0  0  0  0  0  0
   -2.6496    3.9546    1.5653 H   0  0  0  0  0  0  0  0  0  0  0  0
   -4.5543    3.7371    0.0042 H   0  0  0  0  0  0  0  0  0  0  0  0
   -4.5975    1.9236   -1.6564 H   0  0  0  0  0  0  0  0  0  0  0  0
   -3.3117    0.2344   -2.9983 H   0  0  0  0  0  0  0  0  0  0  0  0
   -2.6276   -1.9713   -2.6844 H   0  0  0  0  0  0  0  0  0  0  0  0
   -2.8802   -3.6740   -0.8582 H   0  0  0  0  0  0  0  0  0  0  0  0
   -2.0162   -4.6491    1.2275 H   0  0  0  0  0  0  0  0  0  0  0  0
   -0.4718   -3.3575    2.6618 H   0  0  0  0  0  0  0  0  0  0  0  0
    0.2583   -1.1310    2.0075 H   0  0  0  0  0  0  0  0  0  0  0  0
  1  2  1  0
  2  3  1  0
  3  4  1  0
  4  5  1  0
  5  6  1  0
  6  7  1  0
  7  8  2  0
  8  9  1  0
  9 10  2  0
 10 11  1  0
 11 12  2  0
 12  7  1  0
 12 13  1  0
 13 14  2  0
 14 15  1  0
 15 16  2  0
 16 17  1  0
 17 18  2  0
 18 19  1  0
 19 20  2  0
 20  6  1  0
 20 15  1  0
  1 21  1  0
  1 22  1  0
  1 23  1  0
  2 24  1  0
  3 25  1  0
  3 26  1  0
  4 27  1  0
  4 28  1  0
  5 29  1  0
  5 30  1  0
  6 31  1  0
  8 32  1  0
  9 33  1  0
 10 34  1  0
 11 35  1  0
 13 36  1  0
 14 37  1  0
 16 38  1  0
 17 39  1  0
 18 40  1  0
 19 41  1  0
M  END
> <ID>
HT1770

> <Class>
1.0

> <Clusters>
152

> <Fold>
2

$$$$