
     RDKit          3D

 37 39  0  0  0  0  0  0  0  0999 V2000
   -3.0602    2.5879    0.1279 C   0  0  0  0  0  0  0  0  0  0  0  0
   -2.2636    1.4399    0.5743 N   0  0  0  0  0  0  0  0  0  0  0  0
   -1.8996    0.5525   -0.5541 C   0  0  1  0  0  0  0  0  0  0  0  0
   -0.7841    1.2361   -1.3848 C   0  0  0  0  0  0  0  0  0  0  0  0
    0.0843    0.2453   -2.1534 C   0  0  0  0  0  0  0  0  0  0  0  0
    0.7626   -0.7531   -1.2061 C   0  0  1  0  0  0  0  0  0  0  0  0
    1.8984   -0.1120   -0.4222 C   0  0  0  0  0  0  0  0  0  0  0  0
    1.6907    0.4893    0.8350 C   0  0  0  0  0  0  0  0  0  0  0  0
    2.7527    1.0837    1.5202 C   0  0  0  0  0  0  0  0  0  0  0  0
    4.0351    1.0939    0.9642 C   0  0  0  0  0  0  0  0  0  0  0  0
    5.3454    1.8531    1.8581 Cl  0  0  0  0  0  0  0  0  0  0  0  0
    4.2544    0.5056   -0.2916 C   0  0  0  0  0  0  0  0  0  0  0  0
    5.8503    0.5031   -1.0302 Cl  0  0  0  0  0  0  0  0  0  0  0  0
    3.1896   -0.0898   -0.9778 C   0  0  0  0  0  0  0  0  0  0  0  0
   -0.2524   -1.4280   -0.3115 C   0  0  0  0  0  0  0  0  0  0  0  0
    0.0574   -2.6895    0.2262 C   0  0  0  0  0  0  0  0  0  0  0  0
   -0.8840   -3.3902    0.9790 C   0  0  0  0  0  0  0  0  0  0  0  0
   -2.1500   -2.8487    1.1896 C   0  0  0  0  0  0  0  0  0  0  0  0
   -2.4681   -1.5904    0.6759 C   0  0  0  0  0  0  0  0  0  0  0  0
   -1.5143   -0.8380   -0.0395 C   0  0  0  0  0  0  0  0  0  0  0  0
   -2.4629    3.2463   -0.5363 H   0  0  0  0  0  0  0  0  0  0  0  0
   -3.3625    3.1909    1.0104 H   0  0  0  0  0  0  0  0  0  0  0  0
   -3.9813    2.2540   -0.3982 H   0  0  0  0  0  0  0  0  0  0  0  0
   -2.8541    0.9301    1.2696 H   0  0  0  0  0  0  0  0  0  0  0  0
   -2.7787    0.4007   -1.2224 H   0  0  0  0  0  0  0  0  0  0  0  0
   -0.1348    1.8526   -0.7264 H   0  0  0  0  0  0  0  0  0  0  0  0
   -1.2485    1.9310   -2.1176 H   0  0  0  0  0  0  0  0  0  0  0  0
   -0.5535   -0.3074   -2.8787 H   0  0  0  0  0  0  0  0  0  0  0  0
    0.8520    0.7981   -2.7383 H   0  0  0  0  0  0  0  0  0  0  0  0
    1.1961   -1.5428   -1.8616 H   0  0  0  0  0  0  0  0  0  0  0  0
    0.7083    0.5051    1.2881 H   0  0  0  0  0  0  0  0  0  0  0  0
    2.5758    1.5400    2.4860 H   0  0  0  0  0  0  0  0  0  0  0  0
    3.3688   -0.5342   -1.9494 H   0  0  0  0  0  0  0  0  0  0  0  0
    1.0260   -3.1388    0.0435 H   0  0  0  0  0  0  0  0  0  0  0  0
   -0.6388   -4.3649    1.3808 H   0  0  0  0  0  0  0  0  0  0  0  0
   -2.8891   -3.4062    1.7504 H   0  0  0  0  0  0  0  0  0  0  0  0
   -3.4671   -1.2053    0.8364 H   0  0  0  0  0  0  0  0  0  0  0  0
  1  2  1  0
  3  2  1  0
  3  4  1  0
  4  5  1  0
  5  6  1  0
  6  7  1  0
  7  8  2  0
  8  9  1  0
  9 10  2  0
 10 11  1  0
 10 12  1  0
 12 13  1  0
 12 14  2  0
 14  7  1  0
  6 15  1  0
 15 16  2  0
 16 17  1  0
 17 18  2  0
 18 19  1  0
 19 20  2  0
 20  3  1  0
 20 15  1  0
  1 21  1  0
  1 22  1  0
  1 23  1  0
  2 24  1  0
  3 25  1  6
  4 26  1  0
  4 27  1  0
  5 28  1  0
  5 29  1  0
  6 30  1  6
  8 31  1  0
  9 32  1  0
 14 33  1  0
 16 34  1  0
 17 35  1  0
 18 36  1  0
 19 37  1  0
M  END
> <ID>
HT1881

> <Class>
1.0

> <Clusters>
152

> <Fold>
2

$$$$