
     RDKit          3D

 48 51  0  0  0  0  0  0  0  0999 V2000
   -8.0339    0.4659   -0.4339 Cl  0  0  0  0  0  0  0  0  0  0  0  0
   -6.5650   -0.1933    0.2622 C   0  0  0  0  0  0  0  0  0  0  0  0
   -6.6414   -1.1583    1.2714 C   0  0  0  0  0  0  0  0  0  0  0  0
   -5.4718   -1.6792    1.8304 C   0  0  0  0  0  0  0  0  0  0  0  0
   -4.2232   -1.2383    1.3822 C   0  0  0  0  0  0  0  0  0  0  0  0
   -4.1351   -0.2712    0.3651 C   0  0  0  0  0  0  0  0  0  0  0  0
   -5.3166    0.2497   -0.1891 C   0  0  0  0  0  0  0  0  0  0  0  0
   -2.8531    0.1904   -0.1013 N   0  0  0  0  0  0  0  0  0  0  0  0
   -2.5034    0.0522   -1.5182 C   0  0  0  0  0  0  0  0  0  0  0  0
   -1.5658    1.1897   -1.9585 C   0  0  0  0  0  0  0  0  0  0  0  0
   -0.4366    1.4034   -1.0247 N   0  0  0  0  0  0  0  0  0  0  0  0
    0.6170    0.3682   -1.1287 C   0  0  0  0  0  0  0  0  0  0  0  0
    1.6465    0.7735   -2.1917 C   0  0  0  0  0  0  0  0  0  0  0  0
    2.7516   -0.2786   -2.3545 C   0  0  0  0  0  0  0  0  0  0  0  0
    3.5246   -0.4345   -1.1231 N   0  0  0  0  0  0  0  0  0  0  0  0
    3.5076   -1.5269   -0.3643 N   0  0  0  0  0  0  0  0  0  0  0  0
    4.3490   -1.2630    0.6587 C   0  0  0  0  0  0  0  0  0  0  0  0
    4.6620   -2.1068    1.7207 C   0  0  0  0  0  0  0  0  0  0  0  0
    5.5704   -1.6277    2.6816 C   0  0  0  0  0  0  0  0  0  0  0  0
    6.1324   -0.3394    2.5560 C   0  0  0  0  0  0  0  0  0  0  0  0
    5.7788    0.4662    1.4624 C   0  0  0  0  0  0  0  0  0  0  0  0
    4.8981   -0.0402    0.5637 N   0  0  0  0  0  0  0  0  0  0  0  0
    4.3689    0.4580   -0.5618 C   0  0  0  0  0  0  0  0  0  0  0  0
    4.6312    1.5971   -1.0340 O   0  0  0  0  0  0  0  0  0  0  0  0
   -0.9116    1.6103    0.3586 C   0  0  0  0  0  0  0  0  0  0  0  0
   -1.7684    0.4404    0.8504 C   0  0  0  0  0  0  0  0  0  0  0  0
   -7.6051   -1.5038    1.6235 H   0  0  0  0  0  0  0  0  0  0  0  0
   -5.5326   -2.4268    2.6107 H   0  0  0  0  0  0  0  0  0  0  0  0
   -3.3268   -1.6599    1.8184 H   0  0  0  0  0  0  0  0  0  0  0  0
   -5.2664    1.0095   -0.9589 H   0  0  0  0  0  0  0  0  0  0  0  0
   -2.0233   -0.9351   -1.6810 H   0  0  0  0  0  0  0  0  0  0  0  0
   -3.4124    0.0794   -2.1562 H   0  0  0  0  0  0  0  0  0  0  0  0
   -1.1919    0.9799   -2.9832 H   0  0  0  0  0  0  0  0  0  0  0  0
   -2.1559    2.1299   -2.0252 H   0  0  0  0  0  0  0  0  0  0  0  0
    1.1543    0.2555   -0.1608 H   0  0  0  0  0  0  0  0  0  0  0  0
    0.1927   -0.6273   -1.3775 H   0  0  0  0  0  0  0  0  0  0  0  0
    2.0949    1.7527   -1.9185 H   0  0  0  0  0  0  0  0  0  0  0  0
    1.1408    0.8978   -3.1724 H   0  0  0  0  0  0  0  0  0  0  0  0
    3.4330    0.0237   -3.1787 H   0  0  0  0  0  0  0  0  0  0  0  0
    2.2940   -1.2520   -2.6371 H   0  0  0  0  0  0  0  0  0  0  0  0
    4.2242   -3.0930    1.8048 H   0  0  0  0  0  0  0  0  0  0  0  0
    5.8405   -2.2520    3.5232 H   0  0  0  0  0  0  0  0  0  0  0  0
    6.8313    0.0251    3.2975 H   0  0  0  0  0  0  0  0  0  0  0  0
    6.1949    1.4584    1.3411 H   0  0  0  0  0  0  0  0  0  0  0  0
   -1.5180    2.5420    0.3980 H   0  0  0  0  0  0  0  0  0  0  0  0
   -0.0533    1.7664    1.0481 H   0  0  0  0  0  0  0  0  0  0  0  0
   -2.1811    0.7006    1.8499 H   0  0  0  0  0  0  0  0  0  0  0  0
   -1.1459   -0.4742    0.9549 H   0  0  0  0  0  0  0  0  0  0  0  0
  1  2  1  0
  2  3  2  0
  3  4  1  0
  4  5  2  0
  5  6  1  0
  6  7  2  0
  7  2  1  0
  6  8  1  0
  8  9  1  0
  9 10  1  0
 10 11  1  0
 11 12  1  0
 12 13  1  0
 13 14  1  0
 14 15  1  0
 15 16  1  0
 16 17  2  0
 17 18  1  0
 18 19  2  0
 19 20  1  0
 20 21  2  0
 21 22  1  0
 22 17  1  0
 22 23  1  0
 23 15  1  0
 23 24  2  0
 11 25  1  0
 25 26  1  0
 26  8  1  0
  3 27  1  0
  4 28  1  0
  5 29  1  0
  7 30  1  0
  9 31  1  0
  9 32  1  0
 10 33  1  0
 10 34  1  0
 12 35  1  0
 12 36  1  0
 13 37  1  0
 13 38  1  0
 14 39  1  0
 14 40  1  0
 18 41  1  0
 19 42  1  0
 20 43  1  0
 21 44  1  0
 25 45  1  0
 25 46  1  0
 26 47  1  0
 26 48  1  0
M  END
> <ID>
HT2102

> <Class>
1.0

> <Clusters>
205

> <Fold>
2

$$$$