
     RDKit          3D

 61 65  0  0  0  0  0  0  0  0999 V2000
    5.6531    5.6755    2.9297 C   0  0  0  0  0  0  0  0  0  0  0  0
    4.9474    4.4041    2.5945 C   0  0  0  0  0  0  0  0  0  0  0  0
    5.5430    3.2072    2.2659 C   0  0  0  0  0  0  0  0  0  0  0  0
    4.5650    2.3132    2.0270 N   0  0  0  0  0  0  0  0  0  0  0  0
    3.4087    2.9875    2.2174 C   0  0  0  0  0  0  0  0  0  0  0  0
    3.6067    4.2758    2.5682 N   0  0  0  0  0  0  0  0  0  0  0  0
    4.7177    0.9288    1.6502 C   0  0  0  0  0  0  0  0  0  0  0  0
    3.7061    0.2707    0.9293 C   0  0  0  0  0  0  0  0  0  0  0  0
    3.8489   -1.0758    0.5561 C   0  0  0  0  0  0  0  0  0  0  0  0
    2.8370   -1.7489   -0.2125 N   0  0  0  0  0  0  0  0  0  0  0  0
    1.4233   -1.5800    0.0075 C   0  0  0  0  0  0  0  0  0  0  0  0
    1.0170   -0.8750    0.9721 O   0  0  0  0  0  0  0  0  0  0  0  0
    0.4227   -2.2291   -0.8747 C   0  0  0  0  0  0  0  0  0  0  0  0
    0.6926   -3.4477   -1.5175 C   0  0  0  0  0  0  0  0  0  0  0  0
   -0.2646   -4.0401   -2.3431 C   0  0  0  0  0  0  0  0  0  0  0  0
   -1.5203   -3.4415   -2.5279 C   0  0  0  0  0  0  0  0  0  0  0  0
   -2.5325   -4.1039   -3.4228 C   0  0  0  0  0  0  0  0  0  0  0  0
   -1.8136   -2.2264   -1.8707 C   0  0  0  0  0  0  0  0  0  0  0  0
   -3.0823   -1.5755   -2.0693 N   0  0  0  0  0  0  0  0  0  0  0  0
   -3.8268   -0.9474   -1.0161 C   0  0  0  0  0  0  0  0  0  0  0  0
   -3.4763   -1.1240    0.2866 N   0  0  0  0  0  0  0  0  0  0  0  0
   -4.1846   -0.5417    1.2864 C   0  0  0  0  0  0  0  0  0  0  0  0
   -5.2963    0.2443    0.9876 C   0  0  0  0  0  0  0  0  0  0  0  0
   -5.6684    0.4052   -0.3573 C   0  0  0  0  0  0  0  0  0  0  0  0
   -4.9171   -0.1950   -1.3220 N   0  0  0  0  0  0  0  0  0  0  0  0
   -6.8441    1.2236   -0.7551 C   0  0  0  0  0  0  0  0  0  0  0  0
   -6.8943    1.8126   -2.0311 C   0  0  0  0  0  0  0  0  0  0  0  0
   -7.9978    2.5776   -2.4119 C   0  0  0  0  0  0  0  0  0  0  0  0
   -9.0539    2.7460   -1.5173 C   0  0  0  0  0  0  0  0  0  0  0  0
   -9.0048    2.1643   -0.2902 N   0  0  0  0  0  0  0  0  0  0  0  0
   -7.9416    1.4155    0.1071 C   0  0  0  0  0  0  0  0  0  0  0  0
   -0.8337   -1.6282   -1.0587 C   0  0  0  0  0  0  0  0  0  0  0  0
    5.0303   -1.7559    0.8783 C   0  0  0  0  0  0  0  0  0  0  0  0
    6.0419   -1.1268    1.6215 C   0  0  0  0  0  0  0  0  0  0  0  0
    5.8849    0.2205    1.9876 C   0  0  0  0  0  0  0  0  0  0  0  0
    7.3230   -1.8586    1.9381 C   0  0  0  0  0  0  0  0  0  0  0  0
    7.0911   -3.2167    2.0752 F   0  0  0  0  0  0  0  0  0  0  0  0
    7.8728   -1.3939    3.1202 F   0  0  0  0  0  0  0  0  0  0  0  0
    8.2265   -1.6578    0.9118 F   0  0  0  0  0  0  0  0  0  0  0  0
    6.7538    5.5363    2.8830 H   0  0  0  0  0  0  0  0  0  0  0  0
    5.3583    6.4645    2.2071 H   0  0  0  0  0  0  0  0  0  0  0  0
    5.3732    5.9960    3.9548 H   0  0  0  0  0  0  0  0  0  0  0  0
    6.6057    3.0166    2.1892 H   0  0  0  0  0  0  0  0  0  0  0  0
    2.4240    2.5495    2.1223 H   0  0  0  0  0  0  0  0  0  0  0  0
    2.8308    0.8206    0.6130 H   0  0  0  0  0  0  0  0  0  0  0  0
    3.1652   -2.4348   -0.9267 H   0  0  0  0  0  0  0  0  0  0  0  0
    1.6308   -3.9642   -1.3695 H   0  0  0  0  0  0  0  0  0  0  0  0
   -0.0262   -4.9774   -2.8310 H   0  0  0  0  0  0  0  0  0  0  0  0
   -2.2215   -5.1338   -3.6988 H   0  0  0  0  0  0  0  0  0  0  0  0
   -3.5120   -4.1729   -2.9043 H   0  0  0  0  0  0  0  0  0  0  0  0
   -2.6501   -3.5118   -4.3543 H   0  0  0  0  0  0  0  0  0  0  0  0
   -3.5165   -1.5997   -3.0195 H   0  0  0  0  0  0  0  0  0  0  0  0
   -3.8799   -0.6839    2.3150 H   0  0  0  0  0  0  0  0  0  0  0  0
   -5.8331    0.7277    1.7924 H   0  0  0  0  0  0  0  0  0  0  0  0
   -6.0753    1.6928   -2.7293 H   0  0  0  0  0  0  0  0  0  0  0  0
   -8.0318    3.0388   -3.3902 H   0  0  0  0  0  0  0  0  0  0  0  0
   -9.9144    3.3375   -1.7984 H   0  0  0  0  0  0  0  0  0  0  0  0
   -7.9712    0.9565    1.0857 H   0  0  0  0  0  0  0  0  0  0  0  0
   -1.0396   -0.6719   -0.5941 H   0  0  0  0  0  0  0  0  0  0  0  0
    5.1524   -2.7829    0.5551 H   0  0  0  0  0  0  0  0  0  0  0  0
    6.6708    0.7142    2.5433 H   0  0  0  0  0  0  0  0  0  0  0  0
  1  2  1  0
  2  3  2  0
  3  4  1  0
  4  5  1  0
  5  6  2  0
  6  2  1  0
  4  7  1  0
  7  8  2  0
  8  9  1  0
  9 10  1  0
 10 11  1  0
 11 12  2  0
 11 13  1  0
 13 14  2  0
 14 15  1  0
 15 16  2  0
 16 17  1  0
 16 18  1  0
 18 19  1  0
 19 20  1  0
 20 21  2  0
 21 22  1  0
 22 23  2  0
 23 24  1  0
 24 25  2  0
 25 20  1  0
 24 26  1  0
 26 27  2  0
 27 28  1  0
 28 29  2  0
 29 30  1  0
 30 31  2  0
 31 26  1  0
 18 32  2  0
 32 13  1  0
  9 33  2  0
 33 34  1  0
 34 35  2  0
 35  7  1  0
 34 36  1  0
 36 37  1  0
 36 38  1  0
 36 39  1  0
  1 40  1  0
  1 41  1  0
  1 42  1  0
  3 43  1  0
  5 44  1  0
  8 45  1  0
 10 46  1  0
 14 47  1  0
 15 48  1  0
 17 49  1  0
 17 50  1  0
 17 51  1  0
 19 52  1  0
 22 53  1  0
 23 54  1  0
 27 55  1  0
 28 56  1  0
 29 57  1  0
 31 58  1  0
 32 59  1  0
 33 60  1  0
 35 61  1  0
M  END
> <ID>
HT1492

> <Class>
1.0

> <Clusters>
211

> <Fold>
2

$$$$