
     RDKit          3D

 46 47  0  0  0  0  0  0  0  0999 V2000
    3.8515    1.5717    1.0315 C   0  0  0  0  0  0  0  0  0  0  0  0
    3.9595    0.4305    0.1048 N   0  0  0  0  0  0  0  0  0  0  0  0
    5.0799   -0.4292    0.5198 C   0  0  0  0  0  0  0  0  0  0  0  0
    2.7012   -0.3471    0.0717 C   0  0  0  0  0  0  0  0  0  0  0  0
    1.7192    0.2570   -0.9326 C   0  0  0  0  0  0  0  0  0  0  0  0
    0.5662   -0.5678   -1.0006 O   0  0  0  0  0  0  0  0  0  0  0  0
   -0.5929    0.0957   -1.5118 C   0  0  0  0  0  0  0  0  0  0  0  0
   -0.2849    0.7582   -2.8859 C   0  0  0  0  0  0  0  0  0  0  0  0
   -1.6698   -0.9955   -1.7562 C   0  0  0  0  0  0  0  0  0  0  0  0
   -2.0460   -1.7446   -0.4974 C   0  0  0  0  0  0  0  0  0  0  0  0
   -1.2217   -2.7709   -0.0055 C   0  0  0  0  0  0  0  0  0  0  0  0
   -1.5605   -3.4451    1.1713 C   0  0  0  0  0  0  0  0  0  0  0  0
   -2.7269   -3.1048    1.8639 C   0  0  0  0  0  0  0  0  0  0  0  0
   -3.1478   -3.9487    3.3427 Cl  0  0  0  0  0  0  0  0  0  0  0  0
   -3.5577   -2.0915    1.3755 C   0  0  0  0  0  0  0  0  0  0  0  0
   -3.2224   -1.4163    0.1984 C   0  0  0  0  0  0  0  0  0  0  0  0
   -1.1587    1.1116   -0.5012 C   0  0  0  0  0  0  0  0  0  0  0  0
   -2.1058    2.0812   -0.8976 C   0  0  0  0  0  0  0  0  0  0  0  0
   -2.6561    2.9656    0.0345 C   0  0  0  0  0  0  0  0  0  0  0  0
   -2.2911    2.8854    1.3784 C   0  0  0  0  0  0  0  0  0  0  0  0
   -1.3841    1.9118    1.7964 C   0  0  0  0  0  0  0  0  0  0  0  0
   -0.8298    1.0250    0.8699 C   0  0  0  0  0  0  0  0  0  0  0  0
    4.7892    2.1679    1.0136 H   0  0  0  0  0  0  0  0  0  0  0  0
    3.0335    2.2536    0.7216 H   0  0  0  0  0  0  0  0  0  0  0  0
    3.6624    1.2313    2.0743 H   0  0  0  0  0  0  0  0  0  0  0  0
    4.8911   -0.8821    1.5191 H   0  0  0  0  0  0  0  0  0  0  0  0
    5.2339   -1.2403   -0.2240 H   0  0  0  0  0  0  0  0  0  0  0  0
    6.0239    0.1567    0.5584 H   0  0  0  0  0  0  0  0  0  0  0  0
    2.2309   -0.4044    1.0796 H   0  0  0  0  0  0  0  0  0  0  0  0
    2.8938   -1.3946   -0.2557 H   0  0  0  0  0  0  0  0  0  0  0  0
    2.2156    0.2837   -1.9271 H   0  0  0  0  0  0  0  0  0  0  0  0
    1.4755    1.2968   -0.6275 H   0  0  0  0  0  0  0  0  0  0  0  0
   -1.2119    1.0021   -3.4462 H   0  0  0  0  0  0  0  0  0  0  0  0
    0.2911    1.6992   -2.7565 H   0  0  0  0  0  0  0  0  0  0  0  0
    0.3069    0.0630   -3.5193 H   0  0  0  0  0  0  0  0  0  0  0  0
   -1.3000   -1.7272   -2.5086 H   0  0  0  0  0  0  0  0  0  0  0  0
   -2.5813   -0.5326   -2.1970 H   0  0  0  0  0  0  0  0  0  0  0  0
   -0.3168   -3.0478   -0.5318 H   0  0  0  0  0  0  0  0  0  0  0  0
   -0.9159   -4.2310    1.5438 H   0  0  0  0  0  0  0  0  0  0  0  0
   -4.4614   -1.8243    1.9082 H   0  0  0  0  0  0  0  0  0  0  0  0
   -3.8707   -0.6268   -0.1612 H   0  0  0  0  0  0  0  0  0  0  0  0
   -2.4348    2.1534   -1.9242 H   0  0  0  0  0  0  0  0  0  0  0  0
   -3.3751    3.7088   -0.2854 H   0  0  0  0  0  0  0  0  0  0  0  0
   -2.7223    3.5688    2.0985 H   0  0  0  0  0  0  0  0  0  0  0  0
   -1.1180    1.8359    2.8427 H   0  0  0  0  0  0  0  0  0  0  0  0
   -0.1608    0.2577    1.2343 H   0  0  0  0  0  0  0  0  0  0  0  0
  1  2  1  0
  2  3  1  0
  2  4  1  0
  4  5  1  0
  5  6  1  0
  6  7  1  0
  7  8  1  0
  7  9  1  0
  9 10  1  0
 10 11  2  0
 11 12  1  0
 12 13  2  0
 13 14  1  0
 13 15  1  0
 15 16  2  0
 16 10  1  0
  7 17  1  0
 17 18  2  0
 18 19  1  0
 19 20  2  0
 20 21  1  0
 21 22  2  0
 22 17  1  0
  1 23  1  0
  1 24  1  0
  1 25  1  0
  3 26  1  0
  3 27  1  0
  3 28  1  0
  4 29  1  0
  4 30  1  0
  5 31  1  0
  5 32  1  0
  8 33  1  0
  8 34  1  0
  8 35  1  0
  9 36  1  0
  9 37  1  0
 11 38  1  0
 12 39  1  0
 15 40  1  0
 16 41  1  0
 18 42  1  0
 19 43  1  0
 20 44  1  0
 21 45  1  0
 22 46  1  0
M  END
> <ID>
HT0466

> <Class>
1.0

> <Clusters>
51

> <Fold>
2

$$$$