
     RDKit          3D

 60 63  0  0  0  0  0  0  0  0999 V2000
   -6.8993    0.0976   -2.0830 C   0  0  0  0  0  0  0  0  0  0  0  0
   -6.1204   -1.0944   -1.5032 C   0  0  0  0  0  0  0  0  0  0  0  0
   -6.8049   -1.6080   -0.2242 C   0  0  0  0  0  0  0  0  0  0  0  0
   -4.7897   -0.6796   -1.1936 O   0  0  0  0  0  0  0  0  0  0  0  0
   -4.5381    0.2971   -0.2518 N   0  0  0  0  0  0  0  0  0  0  0  0
   -3.3328    0.6589    0.0678 C   0  0  0  0  0  0  0  0  0  0  0  0
   -2.1641    0.0398   -0.5987 C   0  0  0  0  0  0  0  0  0  0  0  0
   -2.1582   -0.0792   -1.8542 O   0  0  0  0  0  0  0  0  0  0  0  0
   -1.0671   -0.4682    0.1747 N   0  0  0  0  0  0  0  0  0  0  0  0
   -0.0290   -1.3053   -0.4352 C   0  0  1  0  0  0  0  0  0  0  0  0
    1.1640   -0.5938   -0.8446 C   0  0  1  0  0  0  0  0  0  0  0  0
    1.2319    1.2128   -0.6139 S   0  0  0  0  0  0  0  0  0  0  0  0
    3.0702    1.2383   -0.6805 C   0  0  0  0  0  0  0  0  0  0  0  0
    3.7460    0.3989    0.3982 C   0  0  0  0  0  0  0  0  0  0  0  0
    3.2121   -0.7933    0.7718 C   0  0  0  0  0  0  0  0  0  0  0  0
    1.9726   -1.1891    0.1872 N   0  0  0  0  0  0  0  0  0  0  0  0
    0.8044   -1.9992    0.5998 C   0  0  0  0  0  0  0  0  0  0  0  0
    0.5906   -2.8774    1.4769 O   0  0  0  0  0  0  0  0  0  0  0  0
    3.7914   -1.6703    1.8070 C   0  0  0  0  0  0  0  0  0  0  0  0
    3.8484   -2.9132    1.6048 O   0  0  0  0  0  0  0  0  0  0  0  0
    4.2054   -1.1544    3.0307 O   0  0  0  0  0  0  0  0  0  0  0  0
    5.1310    0.8476    0.8236 C   0  0  0  0  0  0  0  0  0  0  0  0
    6.1140    0.5066   -0.2140 N   0  0  0  0  0  0  0  0  0  0  0  0
    6.6106   -0.7663   -0.2819 C   0  0  0  0  0  0  0  0  0  0  0  0
    7.5286   -1.1179   -1.2734 C   0  0  0  0  0  0  0  0  0  0  0  0
    7.9389   -0.1587   -2.1973 C   0  0  0  0  0  0  0  0  0  0  0  0
    7.4300    1.1369   -2.1198 C   0  0  0  0  0  0  0  0  0  0  0  0
    6.5129    1.4547   -1.1167 C   0  0  0  0  0  0  0  0  0  0  0  0
   -3.1659    1.6747    1.1282 C   0  0  0  0  0  0  0  0  0  0  0  0
   -1.9774    2.3672    1.3705 C   0  0  0  0  0  0  0  0  0  0  0  0
   -2.2412    3.4487    2.6318 S   0  0  0  0  0  0  0  0  0  0  0  0
   -3.8466    2.9945    2.8089 C   0  0  0  0  0  0  0  0  0  0  0  0
   -4.7448    3.5545    3.7623 N   0  0  0  0  0  0  0  0  0  0  0  0
   -4.2056    2.0364    1.9308 N   0  0  0  0  0  0  0  0  0  0  0  0
   -6.0755   -2.2130   -2.5249 C   0  0  0  0  0  0  0  0  0  0  0  0
   -7.1513   -2.7014   -2.9638 O   0  0  0  0  0  0  0  0  0  0  0  0
   -4.8683   -2.7355   -2.9906 O   0  0  0  0  0  0  0  0  0  0  0  0
   -6.4069    0.4624   -3.0106 H   0  0  0  0  0  0  0  0  0  0  0  0
   -6.9303    0.9339   -1.3535 H   0  0  0  0  0  0  0  0  0  0  0  0
   -7.9470   -0.1903   -2.3236 H   0  0  0  0  0  0  0  0  0  0  0  0
   -7.8379   -1.9601   -0.4388 H   0  0  0  0  0  0  0  0  0  0  0  0
   -6.2236   -2.4517    0.2067 H   0  0  0  0  0  0  0  0  0  0  0  0
   -6.8665   -0.8016    0.5377 H   0  0  0  0  0  0  0  0  0  0  0  0
   -1.1009   -0.3695    1.2146 H   0  0  0  0  0  0  0  0  0  0  0  0
   -0.4269   -2.0200   -1.1892 H   0  0  0  0  0  0  0  0  0  0  0  0
    1.5221   -0.8987   -1.8529 H   0  0  0  0  0  0  0  0  0  0  0  0
    3.3873    2.2988   -0.5893 H   0  0  0  0  0  0  0  0  0  0  0  0
    3.4029    0.8784   -1.6773 H   0  0  0  0  0  0  0  0  0  0  0  0
    4.5834   -1.7619    3.7488 H   0  0  0  0  0  0  0  0  0  0  0  0
    5.1120    1.9467    0.9940 H   0  0  0  0  0  0  0  0  0  0  0  0
    5.4550    0.4304    1.7946 H   0  0  0  0  0  0  0  0  0  0  0  0
    6.2982   -1.5184    0.4309 H   0  0  0  0  0  0  0  0  0  0  0  0
    7.9168   -2.1267   -1.3251 H   0  0  0  0  0  0  0  0  0  0  0  0
    8.6485   -0.4184   -2.9706 H   0  0  0  0  0  0  0  0  0  0  0  0
    7.7414    1.8885   -2.8331 H   0  0  0  0  0  0  0  0  0  0  0  0
    6.1159    2.4616   -1.0717 H   0  0  0  0  0  0  0  0  0  0  0  0
   -1.0496    2.2547    0.8328 H   0  0  0  0  0  0  0  0  0  0  0  0
   -4.4250    4.3113    4.4071 H   0  0  0  0  0  0  0  0  0  0  0  0
   -5.7243    3.2018    3.8358 H   0  0  0  0  0  0  0  0  0  0  0  0
   -3.9672   -2.3981   -2.6767 H   0  0  0  0  0  0  0  0  0  0  0  0
  1  2  1  0
  2  3  1  0
  2  4  1  0
  4  5  1  0
  5  6  2  3
  6  7  1  0
  7  8  2  0
  7  9  1  0
 10  9  1  0
 10 11  1  0
 11 12  1  0
 12 13  1  0
 13 14  1  0
 14 15  2  0
 15 16  1  0
 16 11  1  0
 16 17  1  0
 17 10  1  0
 17 18  2  0
 15 19  1  0
 19 20  2  0
 19 21  1  0
 14 22  1  0
 22 23  1  0
 23 24  2  0
 24 25  1  0
 25 26  2  0
 26 27  1  0
 27 28  2  0
 28 23  1  0
  6 29  1  0
 29 30  2  0
 30 31  1  0
 31 32  1  0
 32 33  1  0
 32 34  2  0
 34 29  1  0
  2 35  1  0
 35 36  2  0
 35 37  1  0
  1 38  1  0
  1 39  1  0
  1 40  1  0
  3 41  1  0
  3 42  1  0
  3 43  1  0
  9 44  1  0
 10 45  1  6
 11 46  1  6
 13 47  1  0
 13 48  1  0
 21 49  1  0
 22 50  1  0
 22 51  1  0
 24 52  1  0
 25 53  1  0
 26 54  1  0
 27 55  1  0
 28 56  1  0
 30 57  1  0
 33 58  1  0
 33 59  1  0
 37 60  1  0
M  CHG  1  23   1
M  END
> <ID>
HT0423

> <Class>
1.0

> <Clusters>
45

> <Fold>
2

$$$$