
     RDKit          3D

 45 47  0  0  0  0  0  0  0  0999 V2000
   -3.4674   -0.9543    4.4080 N   0  0  0  0  0  0  0  0  0  0  0  0
   -3.0889   -1.3126    3.0821 C   0  0  0  0  0  0  0  0  0  0  0  0
   -3.0379   -0.4298    2.0638 N   0  0  0  0  0  0  0  0  0  0  0  0
   -2.6458   -1.0250    0.9034 C   0  0  0  0  0  0  0  0  0  0  0  0
   -2.3921   -2.3948    1.0061 C   0  0  0  0  0  0  0  0  0  0  0  0
   -2.6601   -2.8623    2.6005 S   0  0  0  0  0  0  0  0  0  0  0  0
   -2.5199   -0.2662   -0.3643 C   0  0  0  0  0  0  0  0  0  0  0  0
   -3.3482    0.6932   -0.6521 N   0  0  0  0  0  0  0  0  0  0  0  0
   -4.3901    1.0514    0.1766 O   0  0  0  0  0  0  0  0  0  0  0  0
   -5.2544    2.1235   -0.1694 C   0  0  0  0  0  0  0  0  0  0  0  0
   -4.5111    3.4227   -0.1158 C   0  0  0  0  0  0  0  0  0  0  0  0
   -4.0153    3.8131    0.9736 O   0  0  0  0  0  0  0  0  0  0  0  0
   -4.3584    4.2061   -1.2564 O   0  0  0  0  0  0  0  0  0  0  0  0
   -1.4594   -0.5891   -1.3420 C   0  0  0  0  0  0  0  0  0  0  0  0
   -1.6232   -0.2758   -2.5531 O   0  0  0  0  0  0  0  0  0  0  0  0
   -0.2322   -1.2085   -0.9268 N   0  0  0  0  0  0  0  0  0  0  0  0
    0.7850   -1.6185   -1.8985 C   0  0  1  0  0  0  0  0  0  0  0  0
    1.7499   -0.5915   -2.2289 C   0  0  1  0  0  0  0  0  0  0  0  0
    1.4853    1.1145   -1.5761 S   0  0  0  0  0  0  0  0  0  0  0  0
    2.4179    0.9577   -0.0006 C   0  0  0  0  0  0  0  0  0  0  0  0
    3.8262    0.4192   -0.1980 C   0  0  0  0  0  0  0  0  0  0  0  0
    3.9746   -0.7433   -0.8698 C   0  0  0  0  0  0  0  0  0  0  0  0
    2.8241   -1.2569   -1.5310 N   0  0  0  0  0  0  0  0  0  0  0  0
    1.9003   -2.3776   -1.2438 C   0  0  0  0  0  0  0  0  0  0  0  0
    1.9975   -3.4809   -0.6460 O   0  0  0  0  0  0  0  0  0  0  0  0
    5.2364   -1.5210   -0.9399 C   0  0  0  0  0  0  0  0  0  0  0  0
    6.1296   -1.3869   -0.0620 O   0  0  0  0  0  0  0  0  0  0  0  0
    5.4322   -2.4543   -1.9553 O   0  0  0  0  0  0  0  0  0  0  0  0
    4.9896    1.1607    0.3494 C   0  0  0  0  0  0  0  0  0  0  0  0
    4.9447    1.8234    1.5040 C   0  0  0  0  0  0  0  0  0  0  0  0
   -3.4931   -1.6755    5.1621 H   0  0  0  0  0  0  0  0  0  0  0  0
   -3.7229    0.0323    4.6335 H   0  0  0  0  0  0  0  0  0  0  0  0
   -2.0862   -3.0501    0.2013 H   0  0  0  0  0  0  0  0  0  0  0  0
   -6.0968    2.1572    0.5526 H   0  0  0  0  0  0  0  0  0  0  0  0
   -5.6720    1.9497   -1.1840 H   0  0  0  0  0  0  0  0  0  0  0  0
   -4.7409    3.9188   -2.1491 H   0  0  0  0  0  0  0  0  0  0  0  0
   -0.0497   -1.3505    0.0926 H   0  0  0  0  0  0  0  0  0  0  0  0
    0.3636   -2.1660   -2.7700 H   0  0  0  0  0  0  0  0  0  0  0  0
    1.9618   -0.5605   -3.3206 H   0  0  0  0  0  0  0  0  0  0  0  0
    2.4337    1.9630    0.4674 H   0  0  0  0  0  0  0  0  0  0  0  0
    1.8607    0.2788    0.6791 H   0  0  0  0  0  0  0  0  0  0  0  0
    4.7480   -2.5971   -2.6882 H   0  0  0  0  0  0  0  0  0  0  0  0
    5.9257    1.1466   -0.1952 H   0  0  0  0  0  0  0  0  0  0  0  0
    4.0545    1.8354    2.1190 H   0  0  0  0  0  0  0  0  0  0  0  0
    5.8247    2.3417    1.8618 H   0  0  0  0  0  0  0  0  0  0  0  0
  1  2  1  0
  2  3  2  0
  3  4  1  0
  4  5  2  0
  5  6  1  0
  6  2  1  0
  4  7  1  0
  7  8  2  3
  8  9  1  0
  9 10  1  0
 10 11  1  0
 11 12  2  0
 11 13  1  0
  7 14  1  0
 14 15  2  0
 14 16  1  0
 17 16  1  0
 17 18  1  0
 18 19  1  0
 19 20  1  0
 20 21  1  0
 21 22  2  0
 22 23  1  0
 23 18  1  0
 23 24  1  0
 24 17  1  0
 24 25  2  0
 22 26  1  0
 26 27  2  0
 26 28  1  0
 21 29  1  0
 29 30  2  3
  1 31  1  0
  1 32  1  0
  5 33  1  0
 10 34  1  0
 10 35  1  0
 13 36  1  0
 16 37  1  0
 17 38  1  6
 18 39  1  6
 20 40  1  0
 20 41  1  0
 28 42  1  0
 29 43  1  0
 30 44  1  0
 30 45  1  0
M  END
> <ID>
HT0405

> <Class>
1.0

> <Clusters>
45

> <Fold>
2

$$$$