
     RDKit          3D

 39 41  0  0  0  0  0  0  0  0999 V2000
    6.9619   -0.0754   -2.3769 N   0  0  0  0  0  0  0  0  0  0  0  0
    5.7251   -0.7068   -2.6951 C   0  0  0  0  0  0  0  0  0  0  0  0
    4.5811   -0.4751   -2.0194 N   0  0  0  0  0  0  0  0  0  0  0  0
    3.5441   -1.2015   -2.5222 C   0  0  0  0  0  0  0  0  0  0  0  0
    3.8772   -2.0198   -3.6053 C   0  0  0  0  0  0  0  0  0  0  0  0
    5.5149   -1.8161   -3.9369 S   0  0  0  0  0  0  0  0  0  0  0  0
    2.1835   -1.1295   -1.9443 C   0  0  0  0  0  0  0  0  0  0  0  0
    1.2581   -1.9135   -2.4139 N   0  0  0  0  0  0  0  0  0  0  0  0
   -0.0472   -1.8722   -1.9791 O   0  0  0  0  0  0  0  0  0  0  0  0
    1.8896   -0.1532   -0.8686 C   0  0  0  0  0  0  0  0  0  0  0  0
    2.3919    1.0022   -0.9277 O   0  0  0  0  0  0  0  0  0  0  0  0
    1.0628   -0.5152    0.2477 N   0  0  0  0  0  0  0  0  0  0  0  0
    0.7091    0.4574    1.2859 C   0  0  1  0  0  0  0  0  0  0  0  0
   -0.4383    1.2847    0.9763 C   0  0  1  0  0  0  0  0  0  0  0  0
   -1.2730    1.0600   -0.6322 S   0  0  0  0  0  0  0  0  0  0  0  0
   -2.8166    1.8495   -0.0250 C   0  0  0  0  0  0  0  0  0  0  0  0
   -3.4586    1.1129    1.1480 C   0  0  0  0  0  0  0  0  0  0  0  0
   -2.6817    0.6028    2.1399 C   0  0  0  0  0  0  0  0  0  0  0  0
   -1.2632    0.6636    1.9809 N   0  0  0  0  0  0  0  0  0  0  0  0
   -0.1024   -0.1656    2.3813 C   0  0  0  0  0  0  0  0  0  0  0  0
    0.1046   -1.0550    3.2476 O   0  0  0  0  0  0  0  0  0  0  0  0
   -3.2164   -0.1164    3.3205 C   0  0  0  0  0  0  0  0  0  0  0  0
   -4.3264   -0.7123    3.2764 O   0  0  0  0  0  0  0  0  0  0  0  0
   -2.4591   -0.1726    4.4864 O   0  0  0  0  0  0  0  0  0  0  0  0
   -4.9363    1.1513    1.2737 C   0  0  0  0  0  0  0  0  0  0  0  0
   -5.7501    0.8859    0.2537 C   0  0  0  0  0  0  0  0  0  0  0  0
    7.8209   -0.2891   -2.9302 H   0  0  0  0  0  0  0  0  0  0  0  0
    7.0173    0.6057   -1.5877 H   0  0  0  0  0  0  0  0  0  0  0  0
    3.2049   -2.6744   -4.1441 H   0  0  0  0  0  0  0  0  0  0  0  0
   -0.7328   -2.5029   -2.3743 H   0  0  0  0  0  0  0  0  0  0  0  0
    0.7975   -1.5185    0.3752 H   0  0  0  0  0  0  0  0  0  0  0  0
    1.5881    1.0112    1.6826 H   0  0  0  0  0  0  0  0  0  0  0  0
   -0.2686    2.3590    1.2125 H   0  0  0  0  0  0  0  0  0  0  0  0
   -3.5123    1.9276   -0.8838 H   0  0  0  0  0  0  0  0  0  0  0  0
   -2.5862    2.8888    0.2927 H   0  0  0  0  0  0  0  0  0  0  0  0
   -2.7945   -0.6723    5.3012 H   0  0  0  0  0  0  0  0  0  0  0  0
   -5.3777    1.3730    2.2378 H   0  0  0  0  0  0  0  0  0  0  0  0
   -6.8222    0.9168    0.3982 H   0  0  0  0  0  0  0  0  0  0  0  0
   -5.3689    0.6047   -0.7191 H   0  0  0  0  0  0  0  0  0  0  0  0
  1  2  1  0
  2  3  2  0
  3  4  1  0
  4  5  2  0
  5  6  1  0
  6  2  1  0
  4  7  1  0
  7  8  2  3
  8  9  1  0
  7 10  1  0
 10 11  2  0
 10 12  1  0
 13 12  1  0
 13 14  1  0
 14 15  1  0
 15 16  1  0
 16 17  1  0
 17 18  2  0
 18 19  1  0
 19 14  1  0
 19 20  1  0
 20 13  1  0
 20 21  2  0
 18 22  1  0
 22 23  2  0
 22 24  1  0
 17 25  1  0
 25 26  2  3
  1 27  1  0
  1 28  1  0
  5 29  1  0
  9 30  1  0
 12 31  1  0
 13 32  1  1
 14 33  1  1
 16 34  1  0
 16 35  1  0
 24 36  1  0
 25 37  1  0
 26 38  1  0
 26 39  1  0
M  END
> <ID>
HT0401

> <Class>
1.0

> <Clusters>
45

> <Fold>
2

$$$$