
     RDKit          3D

 50 53  0  0  0  0  0  0  0  0999 V2000
   -1.7023   -4.1207    0.3968 C   0  0  0  0  0  0  0  0  0  0  0  0
   -2.2828   -2.8757    0.0452 O   0  0  0  0  0  0  0  0  0  0  0  0
   -3.2893   -2.3351    0.8173 N   0  0  0  0  0  0  0  0  0  0  0  0
   -3.8654   -1.2095    0.5230 C   0  0  0  0  0  0  0  0  0  0  0  0
   -3.4476   -0.4322   -0.6646 C   0  0  0  0  0  0  0  0  0  0  0  0
   -4.3271   -0.0349   -1.4750 O   0  0  0  0  0  0  0  0  0  0  0  0
   -2.0710   -0.1160   -0.9169 N   0  0  0  0  0  0  0  0  0  0  0  0
   -1.0639   -0.0446    0.1491 C   0  0  1  0  0  0  0  0  0  0  0  0
    0.2395   -0.5646   -0.2061 C   0  0  1  0  0  0  0  0  0  0  0  0
    0.4715   -1.3689   -1.8267 S   0  0  0  0  0  0  0  0  0  0  0  0
    2.2936   -1.1254   -1.7596 C   0  0  0  0  0  0  0  0  0  0  0  0
    2.7010    0.3417   -1.7089 C   0  0  0  0  0  0  0  0  0  0  0  0
    2.0025    1.2167   -0.9425 C   0  0  0  0  0  0  0  0  0  0  0  0
    0.8313    0.7450   -0.2775 N   0  0  0  0  0  0  0  0  0  0  0  0
   -0.4460    1.3173    0.2038 C   0  0  0  0  0  0  0  0  0  0  0  0
   -0.8552    2.4710    0.4936 O   0  0  0  0  0  0  0  0  0  0  0  0
    2.2939    2.6605   -0.8986 C   0  0  0  0  0  0  0  0  0  0  0  0
    3.3781    3.0718   -0.4084 O   0  0  0  0  0  0  0  0  0  0  0  0
    1.3636    3.5822   -1.3713 O   0  0  0  0  0  0  0  0  0  0  0  0
    3.8797    0.7555   -2.5596 C   0  0  0  0  0  0  0  0  0  0  0  0
    5.4108   -0.0764   -2.0030 S   0  0  0  0  0  0  0  0  0  0  0  0
    5.7648    1.0952   -0.6939 C   0  0  0  0  0  0  0  0  0  0  0  0
    6.4128    2.2579   -0.8741 N   0  0  0  0  0  0  0  0  0  0  0  0
    6.4906    2.7998    0.3335 N   0  0  0  0  0  0  0  0  0  0  0  0
    5.9235    2.0015    1.2265 N   0  0  0  0  0  0  0  0  0  0  0  0
    5.4697    0.9288    0.6046 N   0  0  0  0  0  0  0  0  0  0  0  0
    4.8086   -0.1959    1.2507 C   0  0  0  0  0  0  0  0  0  0  0  0
   -4.9630   -0.7109    1.3787 C   0  0  0  0  0  0  0  0  0  0  0  0
   -5.4739   -1.4189    2.4683 C   0  0  0  0  0  0  0  0  0  0  0  0
   -6.6912   -0.4938    3.1758 S   0  0  0  0  0  0  0  0  0  0  0  0
   -6.5016    0.7630    2.0797 C   0  0  0  0  0  0  0  0  0  0  0  0
   -7.2905    1.9493    2.0629 N   0  0  0  0  0  0  0  0  0  0  0  0
   -5.5417    0.5031    1.1683 N   0  0  0  0  0  0  0  0  0  0  0  0
   -1.2796   -4.0637    1.4234 H   0  0  0  0  0  0  0  0  0  0  0  0
   -2.4768   -4.9145    0.3533 H   0  0  0  0  0  0  0  0  0  0  0  0
   -0.8914   -4.3634   -0.3189 H   0  0  0  0  0  0  0  0  0  0  0  0
   -1.8366    0.2803   -1.8565 H   0  0  0  0  0  0  0  0  0  0  0  0
   -1.4212   -0.3773    1.1469 H   0  0  0  0  0  0  0  0  0  0  0  0
    0.6988   -1.1584    0.6152 H   0  0  0  0  0  0  0  0  0  0  0  0
    2.7360   -1.6160   -2.6510 H   0  0  0  0  0  0  0  0  0  0  0  0
    2.6974   -1.6459   -0.8659 H   0  0  0  0  0  0  0  0  0  0  0  0
    0.4968    3.2777   -1.8016 H   0  0  0  0  0  0  0  0  0  0  0  0
    4.0329    1.8501   -2.6043 H   0  0  0  0  0  0  0  0  0  0  0  0
    3.6814    0.4325   -3.6011 H   0  0  0  0  0  0  0  0  0  0  0  0
    3.7493   -0.2470    0.9243 H   0  0  0  0  0  0  0  0  0  0  0  0
    4.8322   -0.0627    2.3544 H   0  0  0  0  0  0  0  0  0  0  0  0
    5.3309   -1.1396    0.9905 H   0  0  0  0  0  0  0  0  0  0  0  0
   -5.1363   -2.3859    2.8186 H   0  0  0  0  0  0  0  0  0  0  0  0
   -7.0875    2.7069    1.3732 H   0  0  0  0  0  0  0  0  0  0  0  0
   -8.0490    2.0899    2.7674 H   0  0  0  0  0  0  0  0  0  0  0  0
  1  2  1  0
  2  3  1  0
  3  4  2  0
  4  5  1  0
  5  6  2  0
  5  7  1  0
  8  7  1  0
  8  9  1  0
  9 10  1  0
 10 11  1  0
 11 12  1  0
 12 13  2  0
 13 14  1  0
 14  9  1  0
 14 15  1  0
 15  8  1  0
 15 16  2  0
 13 17  1  0
 17 18  2  0
 17 19  1  0
 12 20  1  0
 20 21  1  0
 21 22  1  0
 22 23  2  0
 23 24  1  0
 24 25  2  0
 25 26  1  0
 26 22  1  0
 26 27  1  0
  4 28  1  0
 28 29  2  0
 29 30  1  0
 30 31  1  0
 31 32  1  0
 31 33  2  0
 33 28  1  0
  1 34  1  0
  1 35  1  0
  1 36  1  0
  7 37  1  0
  8 38  1  1
  9 39  1  1
 11 40  1  0
 11 41  1  0
 19 42  1  0
 20 43  1  0
 20 44  1  0
 27 45  1  0
 27 46  1  0
 27 47  1  0
 29 48  1  0
 32 49  1  0
 32 50  1  0
M  END
> <ID>
HT0406

> <Class>
1.0

> <Clusters>
45

> <Fold>
2

$$$$