
     RDKit          3D

 41 43  0  0  0  0  0  0  0  0999 V2000
    3.3825    3.2149   -2.7359 N   0  0  0  0  0  0  0  0  0  0  0  0
    2.7428    1.9585   -2.5308 C   0  0  0  0  0  0  0  0  0  0  0  0
    2.9122    1.2164   -1.4177 N   0  0  0  0  0  0  0  0  0  0  0  0
    2.1890    0.0619   -1.4670 C   0  0  0  0  0  0  0  0  0  0  0  0
    1.4484   -0.1099   -2.6413 C   0  0  0  0  0  0  0  0  0  0  0  0
    1.7041    1.2285   -3.6286 S   0  0  0  0  0  0  0  0  0  0  0  0
    2.2113   -0.9299   -0.3626 C   0  0  0  0  0  0  0  0  0  0  0  0
    3.2622   -0.9534    0.4846 C   0  0  0  0  0  0  0  0  0  0  0  0
    3.4263   -1.9146    1.6329 C   0  0  0  0  0  0  0  0  0  0  0  0
    2.4027   -1.6775    2.6985 C   0  0  0  0  0  0  0  0  0  0  0  0
    1.6626   -2.6214    3.0831 O   0  0  0  0  0  0  0  0  0  0  0  0
    2.2797   -0.4179    3.2765 O   0  0  0  0  0  0  0  0  0  0  0  0
    1.0983   -1.8991   -0.2561 C   0  0  0  0  0  0  0  0  0  0  0  0
    1.3387   -3.1354   -0.2348 O   0  0  0  0  0  0  0  0  0  0  0  0
   -0.2605   -1.4502   -0.2443 N   0  0  0  0  0  0  0  0  0  0  0  0
   -0.8266   -0.8594    0.9735 C   0  0  1  0  0  0  0  0  0  0  0  0
   -1.2204    0.5281    0.8624 C   0  0  1  0  0  0  0  0  0  0  0  0
   -0.7665    1.4741   -0.6559 S   0  0  0  0  0  0  0  0  0  0  0  0
   -2.2520    1.1164   -1.6756 C   0  0  0  0  0  0  0  0  0  0  0  0
   -3.5362    1.3927   -0.9396 C   0  0  0  0  0  0  0  0  0  0  0  0
   -3.7385    0.8590    0.2684 C   0  0  0  0  0  0  0  0  0  0  0  0
   -2.6323    0.2201    0.8943 N   0  0  0  0  0  0  0  0  0  0  0  0
   -2.2810   -1.2000    1.1203 C   0  0  0  0  0  0  0  0  0  0  0  0
   -2.9341   -2.2615    1.2950 O   0  0  0  0  0  0  0  0  0  0  0  0
   -5.0352    0.9357    0.9624 C   0  0  0  0  0  0  0  0  0  0  0  0
   -6.0202    1.5150    0.4289 O   0  0  0  0  0  0  0  0  0  0  0  0
   -5.1798    0.3463    2.2152 O   0  0  0  0  0  0  0  0  0  0  0  0
    4.0163    3.6077   -2.0055 H   0  0  0  0  0  0  0  0  0  0  0  0
    3.2394    3.7400   -3.6272 H   0  0  0  0  0  0  0  0  0  0  0  0
    0.8165   -0.9540   -2.8843 H   0  0  0  0  0  0  0  0  0  0  0  0
    4.0732   -0.2495    0.3392 H   0  0  0  0  0  0  0  0  0  0  0  0
    3.3925   -2.9627    1.2699 H   0  0  0  0  0  0  0  0  0  0  0  0
    4.4282   -1.7572    2.0837 H   0  0  0  0  0  0  0  0  0  0  0  0
    1.5873   -0.2402    3.9947 H   0  0  0  0  0  0  0  0  0  0  0  0
   -0.9097   -1.9137   -0.9197 H   0  0  0  0  0  0  0  0  0  0  0  0
   -0.2573   -1.1069    1.8948 H   0  0  0  0  0  0  0  0  0  0  0  0
   -0.9353    1.1059    1.7695 H   0  0  0  0  0  0  0  0  0  0  0  0
   -2.2267    0.0479   -1.9795 H   0  0  0  0  0  0  0  0  0  0  0  0
   -2.2125    1.7352   -2.5968 H   0  0  0  0  0  0  0  0  0  0  0  0
   -4.3185    1.9473   -1.4430 H   0  0  0  0  0  0  0  0  0  0  0  0
   -6.0710    0.3629    2.6982 H   0  0  0  0  0  0  0  0  0  0  0  0
  1  2  1  0
  2  3  2  0
  3  4  1  0
  4  5  2  0
  5  6  1  0
  6  2  1  0
  4  7  1  0
  7  8  2  0
  8  9  1  0
  9 10  1  0
 10 11  2  0
 10 12  1  0
  7 13  1  0
 13 14  2  0
 13 15  1  0
 16 15  1  0
 16 17  1  0
 17 18  1  0
 18 19  1  0
 19 20  1  0
 20 21  2  0
 21 22  1  0
 22 17  1  0
 22 23  1  0
 23 16  1  0
 23 24  2  0
 21 25  1  0
 25 26  2  0
 25 27  1  0
  1 28  1  0
  1 29  1  0
  5 30  1  0
  8 31  1  0
  9 32  1  0
  9 33  1  0
 12 34  1  0
 15 35  1  0
 16 36  1  1
 17 37  1  1
 19 38  1  0
 19 39  1  0
 20 40  1  0
 27 41  1  0
M  END
> <ID>
HT0424

> <Class>
1.0

> <Clusters>
45

> <Fold>
2

$$$$