
     RDKit          3D

 59 61  0  0  0  0  0  0  0  0999 V2000
    2.9364   -2.2054   -2.3147 C   0  0  0  0  0  0  0  0  0  0  0  0
    3.2933   -1.2068   -1.3749 O   0  0  0  0  0  0  0  0  0  0  0  0
    4.4428   -1.3340   -0.6251 N   0  0  0  0  0  0  0  0  0  0  0  0
    4.8185   -0.4427    0.2434 C   0  0  0  0  0  0  0  0  0  0  0  0
    4.0059    0.7710    0.4880 C   0  0  0  0  0  0  0  0  0  0  0  0
    4.5754    1.8932    0.5558 O   0  0  0  0  0  0  0  0  0  0  0  0
    2.5823    0.6799    0.6411 N   0  0  0  0  0  0  0  0  0  0  0  0
    1.7555    1.8717    0.8478 C   0  0  1  0  0  0  0  0  0  0  0  0
    1.3967    2.5808   -0.3627 C   0  0  1  0  0  0  0  0  0  0  0  0
    1.9959    1.9417   -1.9621 S   0  0  0  0  0  0  0  0  0  0  0  0
    0.7081    2.8551   -2.9045 C   0  0  0  0  0  0  0  0  0  0  0  0
   -0.7233    2.4964   -2.5174 C   0  0  0  0  0  0  0  0  0  0  0  0
   -1.0478    2.2309   -1.2232 C   0  0  0  0  0  0  0  0  0  0  0  0
    0.0053    2.2276   -0.2583 N   0  0  0  0  0  0  0  0  0  0  0  0
    0.3069    1.5266    1.0121 C   0  0  0  0  0  0  0  0  0  0  0  0
   -0.3628    0.8745    1.8553 O   0  0  0  0  0  0  0  0  0  0  0  0
   -2.4155    1.8936   -0.7550 C   0  0  0  0  0  0  0  0  0  0  0  0
   -3.2943    1.4619   -1.5512 O   0  0  0  0  0  0  0  0  0  0  0  0
   -2.7149    2.0287    0.6055 O   0  0  0  0  0  0  0  0  0  0  0  0
   -3.9728    1.6653    1.1618 C   0  0  0  0  0  0  0  0  0  0  0  0
   -4.1752    0.2647    1.0058 O   0  0  0  0  0  0  0  0  0  0  0  0
   -5.3324   -0.3900    1.4427 C   0  0  0  0  0  0  0  0  0  0  0  0
   -6.2528    0.2623    2.0056 O   0  0  0  0  0  0  0  0  0  0  0  0
   -5.4774   -1.8787    1.1937 C   0  0  0  0  0  0  0  0  0  0  0  0
   -5.5845   -2.1178   -0.3232 C   0  0  0  0  0  0  0  0  0  0  0  0
   -4.2349   -2.6062    1.7427 C   0  0  0  0  0  0  0  0  0  0  0  0
   -6.7364   -2.4429    1.8870 C   0  0  0  0  0  0  0  0  0  0  0  0
   -1.7654    2.5714   -3.6068 C   0  0  0  0  0  0  0  0  0  0  0  0
    6.1018   -0.6483    0.9489 C   0  0  0  0  0  0  0  0  0  0  0  0
    6.5115    0.0906    2.0638 C   0  0  0  0  0  0  0  0  0  0  0  0
    8.0100   -0.4929    2.5623 S   0  0  0  0  0  0  0  0  0  0  0  0
    8.0677   -1.6519    1.3493 C   0  0  0  0  0  0  0  0  0  0  0  0
    9.1338   -2.5785    1.1685 N   0  0  0  0  0  0  0  0  0  0  0  0
    6.9731   -1.6212    0.5617 N   0  0  0  0  0  0  0  0  0  0  0  0
    3.7251   -2.2864   -3.0928 H   0  0  0  0  0  0  0  0  0  0  0  0
    1.9753   -1.9281   -2.7960 H   0  0  0  0  0  0  0  0  0  0  0  0
    2.8190   -3.1826   -1.7996 H   0  0  0  0  0  0  0  0  0  0  0  0
    2.1392   -0.2667    0.6891 H   0  0  0  0  0  0  0  0  0  0  0  0
    2.1254    2.5194    1.6730 H   0  0  0  0  0  0  0  0  0  0  0  0
    1.5339    3.6816   -0.2738 H   0  0  0  0  0  0  0  0  0  0  0  0
    0.8781    2.6330   -3.9799 H   0  0  0  0  0  0  0  0  0  0  0  0
    0.8580    3.9474   -2.7620 H   0  0  0  0  0  0  0  0  0  0  0  0
   -4.7862    2.2300    0.6537 H   0  0  0  0  0  0  0  0  0  0  0  0
   -3.9742    1.9229    2.2432 H   0  0  0  0  0  0  0  0  0  0  0  0
   -5.6876   -3.2026   -0.5428 H   0  0  0  0  0  0  0  0  0  0  0  0
   -6.4703   -1.5899   -0.7388 H   0  0  0  0  0  0  0  0  0  0  0  0
   -4.6783   -1.7428   -0.8469 H   0  0  0  0  0  0  0  0  0  0  0  0
   -4.3184   -3.7029    1.5775 H   0  0  0  0  0  0  0  0  0  0  0  0
   -4.1265   -2.4249    2.8347 H   0  0  0  0  0  0  0  0  0  0  0  0
   -3.3105   -2.2522    1.2362 H   0  0  0  0  0  0  0  0  0  0  0  0
   -6.6883   -2.2736    2.9841 H   0  0  0  0  0  0  0  0  0  0  0  0
   -7.6545   -1.9549    1.4951 H   0  0  0  0  0  0  0  0  0  0  0  0
   -6.8244   -3.5361    1.7086 H   0  0  0  0  0  0  0  0  0  0  0  0
   -2.5887    3.2532   -3.3065 H   0  0  0  0  0  0  0  0  0  0  0  0
   -1.3367    2.9714   -4.5486 H   0  0  0  0  0  0  0  0  0  0  0  0
   -2.1636    1.5587   -3.8215 H   0  0  0  0  0  0  0  0  0  0  0  0
    5.9591    0.8850    2.5488 H   0  0  0  0  0  0  0  0  0  0  0  0
    9.1027   -3.2701    0.3873 H   0  0  0  0  0  0  0  0  0  0  0  0
    9.9618   -2.5590    1.8009 H   0  0  0  0  0  0  0  0  0  0  0  0
  1  2  1  0
  2  3  1  0
  3  4  2  0
  4  5  1  0
  5  6  2  0
  5  7  1  0
  8  7  1  0
  8  9  1  0
  9 10  1  0
 10 11  1  0
 11 12  1  0
 12 13  2  0
 13 14  1  0
 14  9  1  0
 14 15  1  0
 15  8  1  0
 15 16  2  0
 13 17  1  0
 17 18  2  0
 17 19  1  0
 19 20  1  0
 20 21  1  0
 21 22  1  0
 22 23  2  0
 22 24  1  0
 24 25  1  0
 24 26  1  0
 24 27  1  0
 12 28  1  0
  4 29  1  0
 29 30  2  0
 30 31  1  0
 31 32  1  0
 32 33  1  0
 32 34  2  0
 34 29  1  0
  1 35  1  0
  1 36  1  0
  1 37  1  0
  7 38  1  0
  8 39  1  1
  9 40  1  1
 11 41  1  0
 11 42  1  0
 20 43  1  0
 20 44  1  0
 25 45  1  0
 25 46  1  0
 25 47  1  0
 26 48  1  0
 26 49  1  0
 26 50  1  0
 27 51  1  0
 27 52  1  0
 27 53  1  0
 28 54  1  0
 28 55  1  0
 28 56  1  0
 30 57  1  0
 33 58  1  0
 33 59  1  0
M  END
> <ID>
HT0404

> <Class>
1.0

> <Clusters>
45

> <Fold>
2

$$$$