
     RDKit          3D

 45 47  0  0  0  0  0  0  0  0999 V2000
    6.8865   -1.7464   -1.2866 C   0  0  0  0  0  0  0  0  0  0  0  0
    5.5093   -1.4122   -1.2063 O   0  0  0  0  0  0  0  0  0  0  0  0
    5.0317   -0.6358   -0.1726 N   0  0  0  0  0  0  0  0  0  0  0  0
    3.7786   -0.3080   -0.0617 C   0  0  0  0  0  0  0  0  0  0  0  0
    2.7700   -0.7923   -1.0342 C   0  0  0  0  0  0  0  0  0  0  0  0
    2.8896   -1.9432   -1.5363 O   0  0  0  0  0  0  0  0  0  0  0  0
    1.6590    0.0362   -1.4096 N   0  0  0  0  0  0  0  0  0  0  0  0
    0.5969   -0.4610   -2.2890 C   0  0  1  0  0  0  0  0  0  0  0  0
   -0.4837   -1.1393   -1.6056 C   0  0  1  0  0  0  0  0  0  0  0  0
   -0.3326   -1.4363    0.2111 S   0  0  0  0  0  0  0  0  0  0  0  0
   -1.1256    0.1118    0.8021 C   0  0  0  0  0  0  0  0  0  0  0  0
   -2.4942    0.3392    0.1848 C   0  0  0  0  0  0  0  0  0  0  0  0
   -2.5832    0.3510   -1.1656 C   0  0  0  0  0  0  0  0  0  0  0  0
   -1.4327   -0.0860   -1.8822 N   0  0  0  0  0  0  0  0  0  0  0  0
   -0.3803    0.6174   -2.6506 C   0  0  0  0  0  0  0  0  0  0  0  0
   -0.3187    1.6978   -3.2931 O   0  0  0  0  0  0  0  0  0  0  0  0
   -3.7851    0.7298   -1.9472 C   0  0  0  0  0  0  0  0  0  0  0  0
   -3.8098    0.4942   -3.1851 O   0  0  0  0  0  0  0  0  0  0  0  0
   -4.8758    1.3644   -1.3616 O   0  0  0  0  0  0  0  0  0  0  0  0
   -3.6664    0.6035    1.0984 C   0  0  0  0  0  0  0  0  0  0  0  0
   -4.6824   -0.3687    0.8708 O   0  0  0  0  0  0  0  0  0  0  0  0
   -5.8992   -0.3636    1.5574 C   0  0  0  0  0  0  0  0  0  0  0  0
   -6.1457    0.5178    2.4248 O   0  0  0  0  0  0  0  0  0  0  0  0
   -6.8714   -1.3650    1.2713 N   0  0  0  0  0  0  0  0  0  0  0  0
    3.3653    0.5363    1.0757 C   0  0  0  0  0  0  0  0  0  0  0  0
    2.1163    0.7780    1.4021 O   0  0  0  0  0  0  0  0  0  0  0  0
    2.0973    1.5490    2.4642 C   0  0  0  0  0  0  0  0  0  0  0  0
    3.3897    1.8268    2.8587 C   0  0  0  0  0  0  0  0  0  0  0  0
    4.2110    1.1729    1.9657 C   0  0  0  0  0  0  0  0  0  0  0  0
    6.9979   -2.8499   -1.2615 H   0  0  0  0  0  0  0  0  0  0  0  0
    7.4512   -1.3043   -0.4378 H   0  0  0  0  0  0  0  0  0  0  0  0
    7.3023   -1.3604   -2.2399 H   0  0  0  0  0  0  0  0  0  0  0  0
    1.6581    1.0416   -1.1231 H   0  0  0  0  0  0  0  0  0  0  0  0
    0.9845   -0.9871   -3.1891 H   0  0  0  0  0  0  0  0  0  0  0  0
   -0.7822   -2.0742   -2.1294 H   0  0  0  0  0  0  0  0  0  0  0  0
   -1.1798    0.0655    1.9093 H   0  0  0  0  0  0  0  0  0  0  0  0
   -0.4697    0.9691    0.5417 H   0  0  0  0  0  0  0  0  0  0  0  0
   -5.6863    1.6223   -1.9118 H   0  0  0  0  0  0  0  0  0  0  0  0
   -3.3564    0.5519    2.1640 H   0  0  0  0  0  0  0  0  0  0  0  0
   -4.0579    1.6282    0.9265 H   0  0  0  0  0  0  0  0  0  0  0  0
   -6.6750   -2.0964    0.5528 H   0  0  0  0  0  0  0  0  0  0  0  0
   -7.7861   -1.3752    1.7750 H   0  0  0  0  0  0  0  0  0  0  0  0
    1.1956    1.9031    2.9455 H   0  0  0  0  0  0  0  0  0  0  0  0
    3.6966    2.4336    3.7000 H   0  0  0  0  0  0  0  0  0  0  0  0
    5.2931    1.1638    1.9669 H   0  0  0  0  0  0  0  0  0  0  0  0
  1  2  1  0
  2  3  1  0
  3  4  2  0
  4  5  1  0
  5  6  2  0
  5  7  1  0
  8  7  1  0
  8  9  1  0
  9 10  1  0
 10 11  1  0
 11 12  1  0
 12 13  2  0
 13 14  1  0
 14  9  1  0
 14 15  1  0
 15  8  1  0
 15 16  2  0
 13 17  1  0
 17 18  2  0
 17 19  1  0
 12 20  1  0
 20 21  1  0
 21 22  1  0
 22 23  2  0
 22 24  1  0
  4 25  1  0
 25 26  1  0
 26 27  1  0
 27 28  2  0
 28 29  1  0
 29 25  2  0
  1 30  1  0
  1 31  1  0
  1 32  1  0
  7 33  1  0
  8 34  1  6
  9 35  1  6
 11 36  1  0
 11 37  1  0
 19 38  1  0
 20 39  1  0
 20 40  1  0
 24 41  1  0
 24 42  1  0
 27 43  1  0
 28 44  1  0
 29 45  1  0
M  END
> <ID>
HT0429

> <Class>
1.0

> <Clusters>
45

> <Fold>
2

$$$$