
     RDKit          3D

 38 40  0  0  0  0  0  0  0  0999 V2000
    2.8895    1.3519   -3.6803 C   0  0  0  0  0  0  0  0  0  0  0  0
    3.0424    0.7730   -2.3956 O   0  0  0  0  0  0  0  0  0  0  0  0
    1.9980    0.0910   -1.8110 N   0  0  0  0  0  0  0  0  0  0  0  0
    2.0844   -0.4589   -0.6361 C   0  0  0  0  0  0  0  0  0  0  0  0
    0.8942   -1.1497   -0.0890 C   0  0  0  0  0  0  0  0  0  0  0  0
    1.0231   -1.9484    0.8788 O   0  0  0  0  0  0  0  0  0  0  0  0
   -0.4063   -0.9295   -0.6585 N   0  0  0  0  0  0  0  0  0  0  0  0
   -1.5940   -1.6118   -0.1366 C   0  0  1  0  0  0  0  0  0  0  0  0
   -2.2114   -0.9643    1.0022 C   0  0  1  0  0  0  0  0  0  0  0  0
   -1.4465    0.5617    1.6649 S   0  0  0  0  0  0  0  0  0  0  0  0
   -2.9988    1.0946    2.4956 C   0  0  0  0  0  0  0  0  0  0  0  0
   -4.1595    1.2623    1.5399 C   0  0  0  0  0  0  0  0  0  0  0  0
   -4.3657    0.4241    0.5108 C   0  0  0  0  0  0  0  0  0  0  0  0
   -3.3816   -0.5784    0.2541 N   0  0  0  0  0  0  0  0  0  0  0  0
   -2.8236   -1.2777   -0.9271 C   0  0  0  0  0  0  0  0  0  0  0  0
   -3.2000   -1.4730   -2.1121 O   0  0  0  0  0  0  0  0  0  0  0  0
   -5.5221    0.5881   -0.3925 C   0  0  0  0  0  0  0  0  0  0  0  0
   -5.7149   -0.2349   -1.3263 O   0  0  0  0  0  0  0  0  0  0  0  0
   -6.4148    1.6424   -0.2154 O   0  0  0  0  0  0  0  0  0  0  0  0
    3.3512   -0.4091    0.1371 C   0  0  0  0  0  0  0  0  0  0  0  0
    3.4002   -0.3236    1.5311 C   0  0  0  0  0  0  0  0  0  0  0  0
    5.0157   -0.2811    2.0015 S   0  0  0  0  0  0  0  0  0  0  0  0
    5.5758   -0.3726    0.4222 C   0  0  0  0  0  0  0  0  0  0  0  0
    6.9515   -0.3808    0.0523 N   0  0  0  0  0  0  0  0  0  0  0  0
    4.5689   -0.4336   -0.4729 N   0  0  0  0  0  0  0  0  0  0  0  0
    2.0715    2.1021   -3.6594 H   0  0  0  0  0  0  0  0  0  0  0  0
    2.6509    0.5615   -4.4225 H   0  0  0  0  0  0  0  0  0  0  0  0
    3.8357    1.8521   -3.9719 H   0  0  0  0  0  0  0  0  0  0  0  0
   -0.5062   -0.2842   -1.4752 H   0  0  0  0  0  0  0  0  0  0  0  0
   -1.4545   -2.7099   -0.0297 H   0  0  0  0  0  0  0  0  0  0  0  0
   -2.4783   -1.6804    1.8113 H   0  0  0  0  0  0  0  0  0  0  0  0
   -3.2720    0.3440    3.2672 H   0  0  0  0  0  0  0  0  0  0  0  0
   -2.8110    2.0589    3.0121 H   0  0  0  0  0  0  0  0  0  0  0  0
   -4.8523    2.0728    1.7309 H   0  0  0  0  0  0  0  0  0  0  0  0
   -7.2121    1.7577   -0.8296 H   0  0  0  0  0  0  0  0  0  0  0  0
    2.5522   -0.2688    2.2005 H   0  0  0  0  0  0  0  0  0  0  0  0
    7.6946   -0.3297    0.7836 H   0  0  0  0  0  0  0  0  0  0  0  0
    7.2257   -0.4379   -0.9534 H   0  0  0  0  0  0  0  0  0  0  0  0
  1  2  1  0
  2  3  1  0
  3  4  2  3
  4  5  1  0
  5  6  2  0
  5  7  1  0
  8  7  1  0
  8  9  1  0
  9 10  1  0
 10 11  1  0
 11 12  1  0
 12 13  2  0
 13 14  1  0
 14  9  1  0
 14 15  1  0
 15  8  1  0
 15 16  2  0
 13 17  1  0
 17 18  2  0
 17 19  1  0
  4 20  1  0
 20 21  2  0
 21 22  1  0
 22 23  1  0
 23 24  1  0
 23 25  2  0
 25 20  1  0
  1 26  1  0
  1 27  1  0
  1 28  1  0
  7 29  1  0
  8 30  1  1
  9 31  1  1
 11 32  1  0
 11 33  1  0
 12 34  1  0
 19 35  1  0
 21 36  1  0
 24 37  1  0
 24 38  1  0
M  END
> <ID>
HT0425

> <Class>
1.0

> <Clusters>
45

> <Fold>
2

$$$$