
     RDKit          3D

 64 66  0  0  0  0  0  0  0  0999 V2000
    1.6735   -3.9115    1.6219 C   0  0  0  0  0  0  0  0  0  0  0  0
    0.8086   -3.9169    0.5080 O   0  0  0  0  0  0  0  0  0  0  0  0
    0.9869   -2.7393   -0.2537 C   0  0  0  0  0  0  0  0  0  0  0  0
    0.1509   -1.6091    0.3088 C   0  0  0  0  0  0  0  0  0  0  0  0
    0.6544   -0.4322    0.7427 C   0  0  0  0  0  0  0  0  0  0  0  0
   -0.2829    0.5227    1.2261 N   0  0  0  0  0  0  0  0  0  0  0  0
   -1.4593    0.3559    2.0459 C   0  0  2  0  0  0  0  0  0  0  0  0
   -2.2134   -1.3097    1.7836 S   0  0  0  0  0  0  0  0  0  0  0  0
   -1.3570   -1.7479    0.2174 C   0  0  0  0  0  0  0  0  0  0  0  0
   -2.1196    1.5141    1.4819 C   0  0  2  0  0  0  0  0  0  0  0  0
   -3.2807    1.2078    0.6409 N   0  0  0  0  0  0  0  0  0  0  0  0
   -4.5948    1.0726    1.2027 C   0  0  0  0  0  0  0  0  0  0  0  0
   -4.7643    1.2096    2.4447 O   0  0  0  0  0  0  0  0  0  0  0  0
   -5.7633    0.7898    0.3380 C   0  0  0  0  0  0  0  0  0  0  0  0
   -5.7074   -0.1249   -0.5828 N   0  0  0  0  0  0  0  0  0  0  0  0
   -4.5873   -0.8960   -0.8014 O   0  0  0  0  0  0  0  0  0  0  0  0
   -4.5866   -1.8808   -1.8201 C   0  0  0  0  0  0  0  0  0  0  0  0
   -7.0383    1.5138    0.5303 C   0  0  0  0  0  0  0  0  0  0  0  0
   -7.1725    2.6743    1.2996 C   0  0  0  0  0  0  0  0  0  0  0  0
   -8.7779    3.1740    1.2247 S   0  0  0  0  0  0  0  0  0  0  0  0
   -9.2256    1.9046    0.2218 C   0  0  0  0  0  0  0  0  0  0  0  0
  -10.5441    1.6947   -0.2759 N   0  0  0  0  0  0  0  0  0  0  0  0
   -8.1869    1.0957   -0.0715 N   0  0  0  0  0  0  0  0  0  0  0  0
   -0.8851    1.7533    0.6646 C   0  0  0  0  0  0  0  0  0  0  0  0
   -0.5296    2.6119   -0.1844 O   0  0  0  0  0  0  0  0  0  0  0  0
    2.0870   -0.0815    0.7886 C   0  0  0  0  0  0  0  0  0  0  0  0
    2.4308    1.1113    0.5673 O   0  0  0  0  0  0  0  0  0  0  0  0
    3.0452   -1.0305    1.1591 O   0  0  0  0  0  0  0  0  0  0  0  0
    4.4409   -0.7490    1.1987 C   0  0  0  0  0  0  0  0  0  0  0  0
    5.1752   -1.9518    1.7721 C   0  0  0  0  0  0  0  0  0  0  0  0
    4.9124   -0.5038   -0.1275 O   0  0  0  0  0  0  0  0  0  0  0  0
    5.5553    0.6717   -0.5279 C   0  0  0  0  0  0  0  0  0  0  0  0
    5.7633    1.6061    0.2947 O   0  0  0  0  0  0  0  0  0  0  0  0
    5.9583    0.7968   -1.8612 O   0  0  0  0  0  0  0  0  0  0  0  0
    6.6591    1.9318   -2.3715 C   0  0  0  0  0  0  0  0  0  0  0  0
    8.1227    1.8967   -1.9231 C   0  0  0  0  0  0  0  0  0  0  0  0
    6.5673    1.9253   -3.8957 C   0  0  0  0  0  0  0  0  0  0  0  0
    1.4878   -3.0324    2.2777 H   0  0  0  0  0  0  0  0  0  0  0  0
    2.7372   -3.9445    1.3012 H   0  0  0  0  0  0  0  0  0  0  0  0
    1.4786   -4.8223    2.2242 H   0  0  0  0  0  0  0  0  0  0  0  0
    2.0569   -2.4904   -0.4094 H   0  0  0  0  0  0  0  0  0  0  0  0
    0.6133   -2.9452   -1.2788 H   0  0  0  0  0  0  0  0  0  0  0  0
   -1.2062    0.5043    3.1190 H   0  0  0  0  0  0  0  0  0  0  0  0
   -1.6394   -2.7878   -0.0509 H   0  0  0  0  0  0  0  0  0  0  0  0
   -1.7295   -1.0819   -0.5893 H   0  0  0  0  0  0  0  0  0  0  0  0
   -2.3065    2.3421    2.2005 H   0  0  0  0  0  0  0  0  0  0  0  0
   -3.1757    1.2116   -0.3994 H   0  0  0  0  0  0  0  0  0  0  0  0
   -5.3817   -2.6295   -1.6187 H   0  0  0  0  0  0  0  0  0  0  0  0
   -4.7671   -1.4017   -2.8054 H   0  0  0  0  0  0  0  0  0  0  0  0
   -3.6026   -2.3913   -1.8384 H   0  0  0  0  0  0  0  0  0  0  0  0
   -6.3855    3.1856    1.8377 H   0  0  0  0  0  0  0  0  0  0  0  0
  -11.3132    2.3543   -0.0249 H   0  0  0  0  0  0  0  0  0  0  0  0
  -10.7494    0.8793   -0.8951 H   0  0  0  0  0  0  0  0  0  0  0  0
    4.6188    0.1199    1.8703 H   0  0  0  0  0  0  0  0  0  0  0  0
    6.2620   -1.7338    1.8383 H   0  0  0  0  0  0  0  0  0  0  0  0
    5.0251   -2.8381    1.1209 H   0  0  0  0  0  0  0  0  0  0  0  0
    4.7928   -2.1799    2.7892 H   0  0  0  0  0  0  0  0  0  0  0  0
    6.1821    2.8666   -2.0014 H   0  0  0  0  0  0  0  0  0  0  0  0
    8.6751    2.7637   -2.3438 H   0  0  0  0  0  0  0  0  0  0  0  0
    8.1863    1.9506   -0.8167 H   0  0  0  0  0  0  0  0  0  0  0  0
    8.6088    0.9571   -2.2617 H   0  0  0  0  0  0  0  0  0  0  0  0
    5.5019    1.9603   -4.2065 H   0  0  0  0  0  0  0  0  0  0  0  0
    7.0862    2.8128   -4.3173 H   0  0  0  0  0  0  0  0  0  0  0  0
    7.0283    1.0024   -4.3085 H   0  0  0  0  0  0  0  0  0  0  0  0
  1  2  1  0
  2  3  1  0
  3  4  1  0
  4  5  2  0
  5  6  1  0
  6  7  1  0
  7  8  1  0
  8  9  1  0
  9  4  1  0
  7 10  1  0
 10 11  1  0
 11 12  1  0
 12 13  2  0
 12 14  1  0
 14 15  2  3
 15 16  1  0
 16 17  1  0
 14 18  1  0
 18 19  2  0
 19 20  1  0
 20 21  1  0
 21 22  1  0
 21 23  2  0
 23 18  1  0
 10 24  1  0
 24  6  1  0
 24 25  2  0
  5 26  1  0
 26 27  2  0
 26 28  1  0
 28 29  1  0
 29 30  1  0
 29 31  1  0
 31 32  1  0
 32 33  2  0
 32 34  1  0
 34 35  1  0
 35 36  1  0
 35 37  1  0
  1 38  1  0
  1 39  1  0
  1 40  1  0
  3 41  1  0
  3 42  1  0
  7 43  1  1
  9 44  1  0
  9 45  1  0
 10 46  1  1
 11 47  1  0
 17 48  1  0
 17 49  1  0
 17 50  1  0
 19 51  1  0
 22 52  1  0
 22 53  1  0
 29 54  1  0
 30 55  1  0
 30 56  1  0
 30 57  1  0
 35 58  1  0
 36 59  1  0
 36 60  1  0
 36 61  1  0
 37 62  1  0
 37 63  1  0
 37 64  1  0
M  END
> <ID>
HT0419

> <Class>
1.0

> <Clusters>
45

> <Fold>
2

$$$$