
     RDKit          3D

 19 19  0  0  0  0  0  0  0  0999 V2000
   -4.2608    0.5838   -0.3167 C   0  0  0  0  0  0  0  0  0  0  0  0
   -2.9330    0.2052    0.2576 C   0  0  0  0  0  0  0  0  0  0  0  0
   -2.8673   -0.1292    1.4710 O   0  0  0  0  0  0  0  0  0  0  0  0
   -1.7545    0.2237   -0.5640 N   0  0  0  0  0  0  0  0  0  0  0  0
   -0.4466   -0.1243   -0.0914 C   0  0  0  0  0  0  0  0  0  0  0  0
   -0.1711   -0.5077    1.1756 N   0  0  0  0  0  0  0  0  0  0  0  0
    1.1183   -0.7778    1.3700 N   0  0  0  0  0  0  0  0  0  0  0  0
    1.8681   -0.6110    0.2590 C   0  0  0  0  0  0  0  0  0  0  0  0
    0.9384   -0.1039   -1.0503 S   0  0  0  0  0  0  0  0  0  0  0  0
    3.5983   -0.8811    0.2042 S   0  0  0  0  0  0  0  0  0  0  0  0
    4.0557   -1.4573    1.5145 O   0  0  0  0  0  0  0  0  0  0  0  0
    3.9196   -1.8512   -0.8972 O   0  0  0  0  0  0  0  0  0  0  0  0
    4.4168    0.6154   -0.0768 N   0  0  0  0  0  0  0  0  0  0  0  0
   -4.9632   -0.2705   -0.2225 H   0  0  0  0  0  0  0  0  0  0  0  0
   -4.1694    0.8541   -1.3895 H   0  0  0  0  0  0  0  0  0  0  0  0
   -4.6700    1.4546    0.2369 H   0  0  0  0  0  0  0  0  0  0  0  0
   -1.8464    0.5059   -1.5656 H   0  0  0  0  0  0  0  0  0  0  0  0
    4.0610    0.9933   -0.9833 H   0  0  0  0  0  0  0  0  0  0  0  0
    4.1062    1.2780    0.6686 H   0  0  0  0  0  0  0  0  0  0  0  0
  1  2  1  0
  2  3  2  0
  2  4  1  0
  4  5  1  0
  5  6  2  0
  6  7  1  0
  7  8  2  0
  8  9  1  0
  9  5  1  0
  8 10  1  0
 10 11  2  0
 10 12  2  0
 10 13  1  0
  1 14  1  0
  1 15  1  0
  1 16  1  0
  4 17  1  0
 13 18  1  0
 13 19  1  0
M  END
> <ID>
HT0054

> <Class>
1.0

> <Clusters>
97

> <Fold>
2

$$$$