
     RDKit          3D

 22 22  0  0  0  0  0  0  0  0999 V2000
   -3.8349   -0.2894   -0.6645 C   0  0  0  0  0  0  0  0  0  0  0  0
   -3.2567   -0.0332    0.7230 C   0  0  0  0  0  0  0  0  0  0  0  0
   -1.8886    0.3613    0.6375 O   0  0  0  0  0  0  0  0  0  0  0  0
   -0.8463   -0.5201    0.3228 C   0  0  0  0  0  0  0  0  0  0  0  0
   -1.0821   -1.7499    0.1721 O   0  0  0  0  0  0  0  0  0  0  0  0
    0.4918   -0.0107    0.1863 N   0  0  0  0  0  0  0  0  0  0  0  0
    0.8488    1.2821    0.3388 C   0  0  0  0  0  0  0  0  0  0  0  0
    2.2074    1.3963    0.1291 C   0  0  0  0  0  0  0  0  0  0  0  0
    2.6989    0.1741   -0.1518 N   0  0  0  0  0  0  0  0  0  0  0  0
    4.0901   -0.1502   -0.4561 C   0  0  0  0  0  0  0  0  0  0  0  0
    1.6409   -0.6656   -0.1150 C   0  0  0  0  0  0  0  0  0  0  0  0
    1.7535   -2.2794   -0.4120 S   0  0  0  0  0  0  0  0  0  0  0  0
   -3.3193   -1.1439   -1.1499 H   0  0  0  0  0  0  0  0  0  0  0  0
   -4.9158   -0.5289   -0.5795 H   0  0  0  0  0  0  0  0  0  0  0  0
   -3.7157    0.6153   -1.2973 H   0  0  0  0  0  0  0  0  0  0  0  0
   -3.3588   -0.9388    1.3596 H   0  0  0  0  0  0  0  0  0  0  0  0
   -3.8311    0.7892    1.1991 H   0  0  0  0  0  0  0  0  0  0  0  0
    0.1717    2.0908    0.5826 H   0  0  0  0  0  0  0  0  0  0  0  0
    2.7912    2.3066    0.1760 H   0  0  0  0  0  0  0  0  0  0  0  0
    4.4572   -0.9262    0.2480 H   0  0  0  0  0  0  0  0  0  0  0  0
    4.7318    0.7514   -0.3570 H   0  0  0  0  0  0  0  0  0  0  0  0
    4.1660   -0.5309   -1.4962 H   0  0  0  0  0  0  0  0  0  0  0  0
  1  2  1  0
  2  3  1  0
  3  4  1  0
  4  5  2  0
  4  6  1  0
  6  7  1  0
  7  8  2  0
  8  9  1  0
  9 10  1  0
  9 11  1  0
 11  6  1  0
 11 12  2  0
  1 13  1  0
  1 14  1  0
  1 15  1  0
  2 16  1  0
  2 17  1  0
  7 18  1  0
  8 19  1  0
 10 20  1  0
 10 21  1  0
 10 22  1  0
M  END
> <ID>
HT0378

> <Class>
1.0

> <Clusters>
245

> <Fold>
2

$$$$