
     RDKit          3D

 57 60  0  0  0  0  0  0  0  0999 V2000
    7.5891   -2.1541    0.9819 C   0  0  0  0  0  0  0  0  0  0  0  0
    6.2409   -1.9062    0.6216 O   0  0  0  0  0  0  0  0  0  0  0  0
    5.7333   -0.6261    0.6642 N   0  0  0  0  0  0  0  0  0  0  0  0
    4.5022   -0.3464    0.3544 C   0  0  0  0  0  0  0  0  0  0  0  0
    3.5595   -1.4194   -0.0529 C   0  0  0  0  0  0  0  0  0  0  0  0
    3.6378   -2.5569    0.4865 O   0  0  0  0  0  0  0  0  0  0  0  0
    2.5751   -1.1822   -1.0707 N   0  0  0  0  0  0  0  0  0  0  0  0
    1.7022   -2.2530   -1.5632 C   0  0  1  0  0  0  0  0  0  0  0  0
    0.5275   -2.5080   -0.7551 C   0  0  1  0  0  0  0  0  0  0  0  0
    0.3099   -1.5809    0.8022 S   0  0  0  0  0  0  0  0  0  0  0  0
   -1.4973   -1.8928    0.8109 C   0  0  0  0  0  0  0  0  0  0  0  0
   -2.2151   -1.2612   -0.3743 C   0  0  0  0  0  0  0  0  0  0  0  0
   -1.6831   -1.3909   -1.6227 C   0  0  0  0  0  0  0  0  0  0  0  0
   -0.3711   -1.9496   -1.7347 N   0  0  0  0  0  0  0  0  0  0  0  0
    0.7848   -1.7606   -2.6420 C   0  0  0  0  0  0  0  0  0  0  0  0
    0.9401   -1.3191   -3.8103 O   0  0  0  0  0  0  0  0  0  0  0  0
   -2.3361   -0.9352   -2.8733 C   0  0  0  0  0  0  0  0  0  0  0  0
   -2.0917   -1.5437   -3.9491 O   0  0  0  0  0  0  0  0  0  0  0  0
   -3.1708    0.1763   -2.9034 O   0  0  0  0  0  0  0  0  0  0  0  0
   -3.5731   -0.6168   -0.1038 C   0  0  0  0  0  0  0  0  0  0  0  0
   -3.5335    0.8257    0.3567 N   0  0  0  0  0  0  0  0  0  0  0  0
   -2.2671    1.5227    0.0073 C   0  0  0  0  0  0  0  0  0  0  0  0
   -4.6861    1.5702   -0.2050 C   0  0  0  0  0  0  0  0  0  0  0  0
   -5.8817    1.2832    0.6904 C   0  0  0  0  0  0  0  0  0  0  0  0
   -5.2805    0.9355    2.0411 C   0  0  0  0  0  0  0  0  0  0  0  0
   -3.7697    0.9163    1.8190 C   0  0  0  0  0  0  0  0  0  0  0  0
    4.0806    1.0705    0.4072 C   0  0  0  0  0  0  0  0  0  0  0  0
    2.7549    1.4919    0.5461 C   0  0  0  0  0  0  0  0  0  0  0  0
    2.7369    3.1735    0.6027 S   0  0  0  0  0  0  0  0  0  0  0  0
    4.4048    3.2893    0.4584 C   0  0  0  0  0  0  0  0  0  0  0  0
    5.1309    4.5152    0.4455 N   0  0  0  0  0  0  0  0  0  0  0  0
    4.9944    2.0797    0.3699 N   0  0  0  0  0  0  0  0  0  0  0  0
    7.7588   -1.8478    2.0353 H   0  0  0  0  0  0  0  0  0  0  0  0
    8.2681   -1.5831    0.3143 H   0  0  0  0  0  0  0  0  0  0  0  0
    7.8032   -3.2378    0.8790 H   0  0  0  0  0  0  0  0  0  0  0  0
    2.5773   -0.2621   -1.5675 H   0  0  0  0  0  0  0  0  0  0  0  0
    2.2612   -3.1643   -1.8691 H   0  0  0  0  0  0  0  0  0  0  0  0
    0.3335   -3.5956   -0.6189 H   0  0  0  0  0  0  0  0  0  0  0  0
   -1.6760   -2.9889    0.7943 H   0  0  0  0  0  0  0  0  0  0  0  0
   -1.8994   -1.5191    1.7701 H   0  0  0  0  0  0  0  0  0  0  0  0
   -3.5985    0.4837   -3.7684 H   0  0  0  0  0  0  0  0  0  0  0  0
   -4.2305   -0.7654   -0.9843 H   0  0  0  0  0  0  0  0  0  0  0  0
   -4.0924   -1.2538    0.6480 H   0  0  0  0  0  0  0  0  0  0  0  0
   -2.0788    1.4907   -1.0843 H   0  0  0  0  0  0  0  0  0  0  0  0
   -1.4022    1.0679    0.5375 H   0  0  0  0  0  0  0  0  0  0  0  0
   -2.2922    2.5947    0.3055 H   0  0  0  0  0  0  0  0  0  0  0  0
   -4.5085    2.6712   -0.1800 H   0  0  0  0  0  0  0  0  0  0  0  0
   -4.9021    1.3096   -1.2640 H   0  0  0  0  0  0  0  0  0  0  0  0
   -6.5553    2.1654    0.7587 H   0  0  0  0  0  0  0  0  0  0  0  0
   -6.4512    0.4150    0.2918 H   0  0  0  0  0  0  0  0  0  0  0  0
   -5.6356   -0.0644    2.3740 H   0  0  0  0  0  0  0  0  0  0  0  0
   -5.5575    1.6931    2.8071 H   0  0  0  0  0  0  0  0  0  0  0  0
   -3.3538    1.8625    2.2397 H   0  0  0  0  0  0  0  0  0  0  0  0
   -3.3004    0.0852    2.3844 H   0  0  0  0  0  0  0  0  0  0  0  0
    1.8838    0.8597    0.6273 H   0  0  0  0  0  0  0  0  0  0  0  0
    6.1706    4.5099    0.3539 H   0  0  0  0  0  0  0  0  0  0  0  0
    4.6297    5.4266    0.5353 H   0  0  0  0  0  0  0  0  0  0  0  0
  1  2  1  0
  2  3  1  0
  3  4  2  0
  4  5  1  0
  5  6  2  0
  5  7  1  0
  8  7  1  0
  8  9  1  0
  9 10  1  0
 10 11  1  0
 11 12  1  0
 12 13  2  0
 13 14  1  0
 14  9  1  0
 14 15  1  0
 15  8  1  0
 15 16  2  0
 13 17  1  0
 17 18  2  0
 17 19  1  0
 12 20  1  0
 20 21  1  0
 21 22  1  0
 21 23  1  0
 23 24  1  0
 24 25  1  0
 25 26  1  0
 26 21  1  0
  4 27  1  0
 27 28  2  0
 28 29  1  0
 29 30  1  0
 30 31  1  0
 30 32  2  0
 32 27  1  0
  1 33  1  0
  1 34  1  0
  1 35  1  0
  7 36  1  0
  8 37  1  6
  9 38  1  1
 11 39  1  0
 11 40  1  0
 19 41  1  0
 20 42  1  0
 20 43  1  0
 22 44  1  0
 22 45  1  0
 22 46  1  0
 23 47  1  0
 23 48  1  0
 24 49  1  0
 24 50  1  0
 25 51  1  0
 25 52  1  0
 26 53  1  0
 26 54  1  0
 28 55  1  0
 31 56  1  0
 31 57  1  0
M  CHG  1  21   1
M  END
> <ID>
HT0403

> <Class>
1.0

> <Clusters>
45

> <Fold>
2

$$$$