
     RDKit          3D

 40 42  0  0  0  0  0  0  0  0999 V2000
   -4.0370   -3.1617   -1.4577 C   0  0  0  0  0  0  0  0  0  0  0  0
   -3.3085   -1.9411   -0.9785 C   0  0  0  0  0  0  0  0  0  0  0  0
   -2.2998   -2.0674   -0.0131 C   0  0  0  0  0  0  0  0  0  0  0  0
   -1.6126   -0.9385    0.4414 C   0  0  0  0  0  0  0  0  0  0  0  0
   -1.9157    0.3328   -0.0736 C   0  0  0  0  0  0  0  0  0  0  0  0
   -2.9392    0.4595   -1.0262 C   0  0  0  0  0  0  0  0  0  0  0  0
   -3.6270   -0.6698   -1.4802 C   0  0  0  0  0  0  0  0  0  0  0  0
   -1.1989    1.5347    0.4082 C   0  0  0  0  0  0  0  0  0  0  0  0
   -1.8028    2.7309    0.7457 C   0  0  0  0  0  0  0  0  0  0  0  0
   -0.7731    3.5052    1.2452 C   0  0  0  0  0  0  0  0  0  0  0  0
    0.3880    2.8249    1.1807 N   0  0  0  0  0  0  0  0  0  0  0  0
    0.1271    1.6286    0.6756 N   0  0  0  0  0  0  0  0  0  0  0  0
    1.1582    0.6660    0.3983 C   0  0  0  0  0  0  0  0  0  0  0  0
    2.1858    0.4552    1.3299 C   0  0  0  0  0  0  0  0  0  0  0  0
    3.2008   -0.4690    1.0659 C   0  0  0  0  0  0  0  0  0  0  0  0
    3.2052   -1.1871   -0.1371 C   0  0  0  0  0  0  0  0  0  0  0  0
    2.1982   -0.9573   -1.0834 C   0  0  0  0  0  0  0  0  0  0  0  0
    1.1835   -0.0330   -0.8205 C   0  0  0  0  0  0  0  0  0  0  0  0
    4.4920   -2.3402   -0.4760 S   0  0  0  0  0  0  0  0  0  0  0  0
    4.9873   -2.9424    0.8090 O   0  0  0  0  0  0  0  0  0  0  0  0
    3.9688   -3.4426   -1.3536 O   0  0  0  0  0  0  0  0  0  0  0  0
    5.7962   -1.5362   -1.2761 N   0  0  0  0  0  0  0  0  0  0  0  0
   -0.8890    4.9224    1.7078 C   0  0  0  0  0  0  0  0  0  0  0  0
   -2.0444    5.0827    2.4507 F   0  0  0  0  0  0  0  0  0  0  0  0
    0.2001    5.2557    2.4925 F   0  0  0  0  0  0  0  0  0  0  0  0
   -0.9320    5.7614    0.6103 F   0  0  0  0  0  0  0  0  0  0  0  0
   -3.3150   -3.8720   -1.9127 H   0  0  0  0  0  0  0  0  0  0  0  0
   -4.5408   -3.6559   -0.6005 H   0  0  0  0  0  0  0  0  0  0  0  0
   -4.8055   -2.9060   -2.2178 H   0  0  0  0  0  0  0  0  0  0  0  0
   -2.0495   -3.0405    0.3914 H   0  0  0  0  0  0  0  0  0  0  0  0
   -0.8535   -1.0578    1.2040 H   0  0  0  0  0  0  0  0  0  0  0  0
   -3.1960    1.4312   -1.4297 H   0  0  0  0  0  0  0  0  0  0  0  0
   -4.4062   -0.5504   -2.2227 H   0  0  0  0  0  0  0  0  0  0  0  0
   -2.8501    2.9929    0.6675 H   0  0  0  0  0  0  0  0  0  0  0  0
    2.1925    0.9993    2.2660 H   0  0  0  0  0  0  0  0  0  0  0  0
    3.9833   -0.6216    1.7982 H   0  0  0  0  0  0  0  0  0  0  0  0
    2.2024   -1.4866   -2.0277 H   0  0  0  0  0  0  0  0  0  0  0  0
    0.4260    0.1466   -1.5723 H   0  0  0  0  0  0  0  0  0  0  0  0
    6.0998   -0.7540   -0.6537 H   0  0  0  0  0  0  0  0  0  0  0  0
    5.4014   -1.0986   -2.1385 H   0  0  0  0  0  0  0  0  0  0  0  0
  1  2  1  0
  2  3  2  0
  3  4  1  0
  4  5  2  0
  5  6  1  0
  6  7  2  0
  7  2  1  0
  5  8  1  0
  8  9  2  0
  9 10  1  0
 10 11  2  0
 11 12  1  0
 12  8  1  0
 12 13  1  0
 13 14  2  0
 14 15  1  0
 15 16  2  0
 16 17  1  0
 17 18  2  0
 18 13  1  0
 16 19  1  0
 19 20  2  0
 19 21  2  0
 19 22  1  0
 10 23  1  0
 23 24  1  0
 23 25  1  0
 23 26  1  0
  1 27  1  0
  1 28  1  0
  1 29  1  0
  3 30  1  0
  4 31  1  0
  6 32  1  0
  7 33  1  0
  9 34  1  0
 14 35  1  0
 15 36  1  0
 17 37  1  0
 18 38  1  0
 22 39  1  0
 22 40  1  0
M  END
> <ID>
HT0430

> <Class>
1.0

> <Clusters>
238

> <Fold>
2

$$$$