
     RDKit          3D

 69 72  0  0  0  0  0  0  0  0999 V2000
    5.7810    1.0265   -1.9879 C   0  0  0  0  0  0  0  0  0  0  0  0
    6.0503   -0.0683   -1.1280 O   0  0  0  0  0  0  0  0  0  0  0  0
    5.0214   -0.6978   -0.4633 N   0  0  0  0  0  0  0  0  0  0  0  0
    5.2059   -1.6934    0.3528 C   0  0  0  0  0  0  0  0  0  0  0  0
    4.0324   -2.2447    1.0690 C   0  0  0  0  0  0  0  0  0  0  0  0
    4.2003   -3.0309    2.0414 O   0  0  0  0  0  0  0  0  0  0  0  0
    2.6996   -1.9003    0.6587 N   0  0  0  0  0  0  0  0  0  0  0  0
    1.5304   -2.2881    1.4523 C   0  0  1  0  0  0  0  0  0  0  0  0
    1.0504   -1.2586    2.3499 C   0  0  1  0  0  0  0  0  0  0  0  0
    2.0374    0.2932    2.5249 S   0  0  0  0  0  0  0  0  0  0  0  0
    1.2079    1.3126    1.2368 C   0  0  0  0  0  0  0  0  0  0  0  0
   -0.3067    1.3182    1.3602 C   0  0  0  0  0  0  0  0  0  0  0  0
   -0.9475    0.1334    1.4091 C   0  0  0  0  0  0  0  0  0  0  0  0
   -0.1491   -1.0294    1.5807 N   0  0  0  0  0  0  0  0  0  0  0  0
    0.2575   -2.1284    0.6769 C   0  0  0  0  0  0  0  0  0  0  0  0
   -0.2388   -2.6717   -0.3452 O   0  0  0  0  0  0  0  0  0  0  0  0
   -2.4062   -0.0339    1.2455 C   0  0  0  0  0  0  0  0  0  0  0  0
   -2.9568   -1.0820    1.6809 O   0  0  0  0  0  0  0  0  0  0  0  0
   -3.1602    0.9202    0.5520 O   0  0  0  0  0  0  0  0  0  0  0  0
   -4.5287    0.7250    0.2161 C   0  0  0  0  0  0  0  0  0  0  0  0
   -4.6492   -0.4234   -0.6160 O   0  0  0  0  0  0  0  0  0  0  0  0
   -5.8675   -0.8587   -1.1444 C   0  0  0  0  0  0  0  0  0  0  0  0
   -6.9041   -0.1524   -1.0032 O   0  0  0  0  0  0  0  0  0  0  0  0
   -5.9099   -2.1406   -1.9535 C   0  0  0  0  0  0  0  0  0  0  0  0
   -4.9901   -3.1935   -1.3028 C   0  0  0  0  0  0  0  0  0  0  0  0
   -5.4180   -1.8409   -3.3801 C   0  0  0  0  0  0  0  0  0  0  0  0
   -7.3448   -2.7046   -2.0137 C   0  0  0  0  0  0  0  0  0  0  0  0
   -1.0486    2.5997    1.4023 C   0  0  0  0  0  0  0  0  0  0  0  0
   -0.7074    3.6538    0.6525 C   0  0  0  0  0  0  0  0  0  0  0  0
   -1.4790    4.9149    0.6672 C   0  0  0  0  0  0  0  0  0  0  0  0
   -2.8287    5.2512    1.6224 S   0  0  0  0  0  0  0  0  0  0  0  0
   -3.0295    6.8027    1.0101 C   0  0  0  0  0  0  0  0  0  0  0  0
   -2.0879    7.0819    0.0822 N   0  0  0  0  0  0  0  0  0  0  0  0
   -1.2263    6.0455   -0.1147 C   0  0  0  0  0  0  0  0  0  0  0  0
   -0.1100    6.1398   -1.1084 C   0  0  0  0  0  0  0  0  0  0  0  0
    6.5584   -2.2608    0.5880 C   0  0  0  0  0  0  0  0  0  0  0  0
    7.5067   -2.4476   -0.4219 C   0  0  0  0  0  0  0  0  0  0  0  0
    8.8622   -3.1849    0.2518 S   0  0  0  0  0  0  0  0  0  0  0  0
    8.1874   -3.2343    1.7870 C   0  0  0  0  0  0  0  0  0  0  0  0
    8.8262   -3.7955    2.9308 N   0  0  0  0  0  0  0  0  0  0  0  0
    6.9440   -2.7108    1.8150 N   0  0  0  0  0  0  0  0  0  0  0  0
    5.3046    1.8476   -1.4122 H   0  0  0  0  0  0  0  0  0  0  0  0
    5.1040    0.7049   -2.8075 H   0  0  0  0  0  0  0  0  0  0  0  0
    6.7321    1.3916   -2.4243 H   0  0  0  0  0  0  0  0  0  0  0  0
    2.5596   -1.3510   -0.2203 H   0  0  0  0  0  0  0  0  0  0  0  0
    1.6136   -3.3027    1.9004 H   0  0  0  0  0  0  0  0  0  0  0  0
    0.7922   -1.6692    3.3506 H   0  0  0  0  0  0  0  0  0  0  0  0
    1.6167    2.3406    1.3170 H   0  0  0  0  0  0  0  0  0  0  0  0
    1.4861    0.9184    0.2367 H   0  0  0  0  0  0  0  0  0  0  0  0
   -5.1284    0.5900    1.1429 H   0  0  0  0  0  0  0  0  0  0  0  0
   -4.8947    1.6220   -0.3270 H   0  0  0  0  0  0  0  0  0  0  0  0
   -3.9338   -2.8462   -1.2890 H   0  0  0  0  0  0  0  0  0  0  0  0
   -5.0266   -4.1496   -1.8683 H   0  0  0  0  0  0  0  0  0  0  0  0
   -5.3064   -3.3935   -0.2555 H   0  0  0  0  0  0  0  0  0  0  0  0
   -5.4458   -2.7594   -4.0064 H   0  0  0  0  0  0  0  0  0  0  0  0
   -6.0617   -1.0725   -3.8622 H   0  0  0  0  0  0  0  0  0  0  0  0
   -4.3726   -1.4600   -3.3627 H   0  0  0  0  0  0  0  0  0  0  0  0
   -7.7335   -2.8951   -0.9892 H   0  0  0  0  0  0  0  0  0  0  0  0
   -7.3670   -3.6603   -2.5815 H   0  0  0  0  0  0  0  0  0  0  0  0
   -8.0274   -1.9907   -2.5230 H   0  0  0  0  0  0  0  0  0  0  0  0
   -1.9253    2.6517    2.0345 H   0  0  0  0  0  0  0  0  0  0  0  0
    0.1393    3.5793   -0.0182 H   0  0  0  0  0  0  0  0  0  0  0  0
   -3.8053    7.4971    1.3032 H   0  0  0  0  0  0  0  0  0  0  0  0
   -0.2434    5.3688   -1.8961 H   0  0  0  0  0  0  0  0  0  0  0  0
    0.8638    5.9838   -0.5967 H   0  0  0  0  0  0  0  0  0  0  0  0
   -0.1054    7.1425   -1.5878 H   0  0  0  0  0  0  0  0  0  0  0  0
    7.3859   -2.2066   -1.4687 H   0  0  0  0  0  0  0  0  0  0  0  0
    9.7797   -4.2147    2.8497 H   0  0  0  0  0  0  0  0  0  0  0  0
    8.3354   -3.8103    3.8525 H   0  0  0  0  0  0  0  0  0  0  0  0
  1  2  1  0
  2  3  1  0
  3  4  2  3
  4  5  1  0
  5  6  2  0
  5  7  1  0
  8  7  1  0
  8  9  1  0
  9 10  1  0
 10 11  1  0
 11 12  1  0
 12 13  2  0
 13 14  1  0
 14  9  1  0
 14 15  1  0
 15  8  1  0
 15 16  2  0
 13 17  1  0
 17 18  2  0
 17 19  1  0
 19 20  1  0
 20 21  1  0
 21 22  1  0
 22 23  2  0
 22 24  1  0
 24 25  1  0
 24 26  1  0
 24 27  1  0
 12 28  1  0
 28 29  2  3
 29 30  1  0
 30 31  1  0
 31 32  1  0
 32 33  2  0
 33 34  1  0
 34 30  2  0
 34 35  1  0
  4 36  1  0
 36 37  2  0
 37 38  1  0
 38 39  1  0
 39 40  1  0
 39 41  2  0
 41 36  1  0
  1 42  1  0
  1 43  1  0
  1 44  1  0
  7 45  1  0
  8 46  1  1
  9 47  1  1
 11 48  1  0
 11 49  1  0
 20 50  1  0
 20 51  1  0
 25 52  1  0
 25 53  1  0
 25 54  1  0
 26 55  1  0
 26 56  1  0
 26 57  1  0
 27 58  1  0
 27 59  1  0
 27 60  1  0
 28 61  1  0
 29 62  1  0
 32 63  1  0
 35 64  1  0
 35 65  1  0
 35 66  1  0
 37 67  1  0
 40 68  1  0
 40 69  1  0
M  END
> <ID>
HT0402

> <Class>
1.0

> <Clusters>
45

> <Fold>
2

$$$$