
     RDKit          3D

 23 24  0  0  0  0  0  0  0  0999 V2000
   -3.9080   -0.1189   -1.0815 N   0  0  0  0  0  0  0  0  0  0  0  0
   -3.0691   -0.3554    0.4118 S   0  0  0  0  0  0  0  0  0  0  0  0
   -3.1750   -1.8020    0.8082 O   0  0  0  0  0  0  0  0  0  0  0  0
   -3.6974    0.4877    1.4854 O   0  0  0  0  0  0  0  0  0  0  0  0
   -1.3743    0.1068    0.2155 C   0  0  0  0  0  0  0  0  0  0  0  0
   -0.3682   -0.8510    0.4081 C   0  0  0  0  0  0  0  0  0  0  0  0
    0.9792   -0.5060    0.2545 C   0  0  0  0  0  0  0  0  0  0  0  0
    1.3431    0.8012   -0.0947 C   0  0  0  0  0  0  0  0  0  0  0  0
    2.7227    1.1813   -0.2588 N   0  0  0  0  0  0  0  0  0  0  0  0
    3.8566    0.3117   -0.0942 C   0  0  0  0  0  0  0  0  0  0  0  0
    3.7432   -0.9393    0.2282 N   0  0  0  0  0  0  0  0  0  0  0  0
    2.2216   -1.7047    0.4965 S   0  0  0  0  0  0  0  0  0  0  0  0
    2.1616   -2.2245    1.9049 O   0  0  0  0  0  0  0  0  0  0  0  0
    2.0441   -2.8288   -0.4844 O   0  0  0  0  0  0  0  0  0  0  0  0
    0.3368    1.7590   -0.2884 C   0  0  0  0  0  0  0  0  0  0  0  0
   -1.0135    1.4225   -0.1369 C   0  0  0  0  0  0  0  0  0  0  0  0
   -2.2189    2.6788   -0.3984 Cl  0  0  0  0  0  0  0  0  0  0  0  0
   -3.4608   -0.7477   -1.7856 H   0  0  0  0  0  0  0  0  0  0  0  0
   -4.8836   -0.4655   -0.9428 H   0  0  0  0  0  0  0  0  0  0  0  0
   -0.6266   -1.8671    0.6772 H   0  0  0  0  0  0  0  0  0  0  0  0
    2.9343    2.1709   -0.5200 H   0  0  0  0  0  0  0  0  0  0  0  0
    4.8479    0.7178   -0.2456 H   0  0  0  0  0  0  0  0  0  0  0  0
    0.6044    2.7731   -0.5591 H   0  0  0  0  0  0  0  0  0  0  0  0
  1  2  1  0
  2  3  2  0
  2  4  2  0
  2  5  1  0
  5  6  2  0
  6  7  1  0
  7  8  2  0
  8  9  1  0
  9 10  1  0
 10 11  2  0
 11 12  1  0
 12  7  1  0
 12 13  2  0
 12 14  2  0
  8 15  1  0
 15 16  2  0
 16  5  1  0
 16 17  1  0
  1 18  1  0
  1 19  1  0
  6 20  1  0
  9 21  1  0
 10 22  1  0
 15 23  1  0
M  END
> <ID>
HT0460

> <Class>
1.0

> <Clusters>
128

> <Fold>
2

$$$$