
     RDKit          3D

 47 49  0  0  0  0  0  0  0  0999 V2000
   -3.3800    3.1348   -2.1862 C   0  0  0  0  0  0  0  0  0  0  0  0
   -3.7401    2.1360   -1.2473 O   0  0  0  0  0  0  0  0  0  0  0  0
   -2.8736    1.7880   -0.2345 N   0  0  0  0  0  0  0  0  0  0  0  0
   -3.1521    0.8770    0.6501 C   0  0  0  0  0  0  0  0  0  0  0  0
   -2.1397    0.5607    1.6834 C   0  0  0  0  0  0  0  0  0  0  0  0
   -2.4791   -0.0723    2.7203 O   0  0  0  0  0  0  0  0  0  0  0  0
   -0.7742    0.9769    1.5216 N   0  0  0  0  0  0  0  0  0  0  0  0
    0.2482    0.6521    2.5206 C   0  0  1  0  0  0  0  0  0  0  0  0
    0.8575   -0.6512    2.3580 C   0  0  1  0  0  0  0  0  0  0  0  0
    0.1704   -1.7990    1.0838 S   0  0  0  0  0  0  0  0  0  0  0  0
    1.2120   -1.2745   -0.3341 C   0  0  0  0  0  0  0  0  0  0  0  0
    2.6942   -1.3097   -0.0100 C   0  0  0  0  0  0  0  0  0  0  0  0
    3.1272   -0.6104    1.0644 C   0  0  0  0  0  0  0  0  0  0  0  0
    2.1243   -0.0994    1.9363 N   0  0  0  0  0  0  0  0  0  0  0  0
    1.5760    1.2557    2.1716 C   0  0  0  0  0  0  0  0  0  0  0  0
    2.0226    2.4275    2.0652 O   0  0  0  0  0  0  0  0  0  0  0  0
    4.5516   -0.3750    1.4154 C   0  0  0  0  0  0  0  0  0  0  0  0
    5.4649   -0.4974    0.5579 O   0  0  0  0  0  0  0  0  0  0  0  0
    4.9009    0.0264    2.7031 O   0  0  0  0  0  0  0  0  0  0  0  0
    3.6174   -2.0586   -0.9384 C   0  0  0  0  0  0  0  0  0  0  0  0
    4.2345   -1.1437   -1.8384 O   0  0  0  0  0  0  0  0  0  0  0  0
    5.1518   -1.5471   -2.8125 C   0  0  0  0  0  0  0  0  0  0  0  0
    5.4504   -2.7643   -2.9520 O   0  0  0  0  0  0  0  0  0  0  0  0
    5.7455   -0.5310   -3.7274 C   0  0  0  0  0  0  0  0  0  0  0  0
   -4.4599    0.1738    0.6335 C   0  0  0  0  0  0  0  0  0  0  0  0
   -4.6204   -1.1634    1.0062 C   0  0  0  0  0  0  0  0  0  0  0  0
   -6.2448   -1.5687    0.8343 S   0  0  0  0  0  0  0  0  0  0  0  0
   -6.6675   -0.0362    0.2967 C   0  0  0  0  0  0  0  0  0  0  0  0
   -7.9885    0.3579   -0.0627 N   0  0  0  0  0  0  0  0  0  0  0  0
   -5.6061    0.7937    0.2370 N   0  0  0  0  0  0  0  0  0  0  0  0
   -4.2057    3.2676   -2.9148 H   0  0  0  0  0  0  0  0  0  0  0  0
   -2.4610    2.8275   -2.7280 H   0  0  0  0  0  0  0  0  0  0  0  0
   -3.1984    4.0961   -1.6613 H   0  0  0  0  0  0  0  0  0  0  0  0
   -0.5066    1.5402    0.6824 H   0  0  0  0  0  0  0  0  0  0  0  0
   -0.0619    0.8984    3.5598 H   0  0  0  0  0  0  0  0  0  0  0  0
    0.9723   -1.1769    3.3318 H   0  0  0  0  0  0  0  0  0  0  0  0
    0.9724   -1.9276   -1.1988 H   0  0  0  0  0  0  0  0  0  0  0  0
    0.9284   -0.2390   -0.6188 H   0  0  0  0  0  0  0  0  0  0  0  0
    4.2118    0.1316    3.4378 H   0  0  0  0  0  0  0  0  0  0  0  0
    4.3849   -2.6122   -0.3554 H   0  0  0  0  0  0  0  0  0  0  0  0
    3.0486   -2.8138   -1.5224 H   0  0  0  0  0  0  0  0  0  0  0  0
    5.1459   -0.4780   -4.6596 H   0  0  0  0  0  0  0  0  0  0  0  0
    5.7464    0.4650   -3.2370 H   0  0  0  0  0  0  0  0  0  0  0  0
    6.7912   -0.8077   -3.9784 H   0  0  0  0  0  0  0  0  0  0  0  0
   -3.8380   -1.8378    1.3281 H   0  0  0  0  0  0  0  0  0  0  0  0
   -8.7776   -0.3225    0.0005 H   0  0  0  0  0  0  0  0  0  0  0  0
   -8.1761    1.3306   -0.3919 H   0  0  0  0  0  0  0  0  0  0  0  0
  1  2  1  0
  2  3  1  0
  3  4  2  3
  4  5  1  0
  5  6  2  0
  5  7  1  0
  8  7  1  0
  8  9  1  0
  9 10  1  0
 10 11  1  0
 11 12  1  0
 12 13  2  0
 13 14  1  0
 14  9  1  0
 14 15  1  0
 15  8  1  0
 15 16  2  0
 13 17  1  0
 17 18  2  0
 17 19  1  0
 12 20  1  0
 20 21  1  0
 21 22  1  0
 22 23  2  0
 22 24  1  0
  4 25  1  0
 25 26  2  0
 26 27  1  0
 27 28  1  0
 28 29  1  0
 28 30  2  0
 30 25  1  0
  1 31  1  0
  1 32  1  0
  1 33  1  0
  7 34  1  0
  8 35  1  1
  9 36  1  1
 11 37  1  0
 11 38  1  0
 19 39  1  0
 20 40  1  0
 20 41  1  0
 24 42  1  0
 24 43  1  0
 24 44  1  0
 26 45  1  0
 29 46  1  0
 29 47  1  0
M  END
> <ID>
HT0412

> <Class>
1.0

> <Clusters>
45

> <Fold>
2

$$$$