
     RDKit          3D

 57 59  0  0  0  0  0  0  0  0999 V2000
    5.3488   -3.1221   -2.2228 C   0  0  0  0  0  0  0  0  0  0  0  0
    5.6911   -1.8011   -1.8412 O   0  0  0  0  0  0  0  0  0  0  0  0
    4.8763   -1.0902   -0.9890 N   0  0  0  0  0  0  0  0  0  0  0  0
    5.1318    0.1265   -0.6073 C   0  0  0  0  0  0  0  0  0  0  0  0
    4.2190    0.7750    0.3608 C   0  0  0  0  0  0  0  0  0  0  0  0
    4.3825    1.9905    0.6569 O   0  0  0  0  0  0  0  0  0  0  0  0
    3.1338    0.0413    0.9519 N   0  0  0  0  0  0  0  0  0  0  0  0
    2.1708    0.6903    1.8463 C   0  0  1  0  0  0  0  0  0  0  0  0
    1.0670    1.3419    1.1735 C   0  0  1  0  0  0  0  0  0  0  0  0
    1.0796    1.4260   -0.6716 S   0  0  0  0  0  0  0  0  0  0  0  0
    0.2199   -0.1602   -1.0153 C   0  0  0  0  0  0  0  0  0  0  0  0
   -1.1068   -0.2756   -0.2846 C   0  0  0  0  0  0  0  0  0  0  0  0
   -1.1116   -0.0890    1.0558 C   0  0  0  0  0  0  0  0  0  0  0  0
    0.1008    0.3754    1.6404 N   0  0  0  0  0  0  0  0  0  0  0  0
    1.1818   -0.2882    2.4052 C   0  0  0  0  0  0  0  0  0  0  0  0
    1.2501   -1.2906    3.1632 O   0  0  0  0  0  0  0  0  0  0  0  0
   -2.2683   -0.3243    1.9511 C   0  0  0  0  0  0  0  0  0  0  0  0
   -2.0626   -0.4395    3.1904 O   0  0  0  0  0  0  0  0  0  0  0  0
   -3.5761   -0.3721    1.4560 O   0  0  0  0  0  0  0  0  0  0  0  0
   -4.7137   -0.6873    2.2593 C   0  0  0  0  0  0  0  0  0  0  0  0
   -4.7750   -2.1907    2.5060 C   0  0  0  0  0  0  0  0  0  0  0  0
   -5.8988   -0.2827    1.5797 O   0  0  0  0  0  0  0  0  0  0  0  0
   -6.1891    1.0535    1.2884 C   0  0  0  0  0  0  0  0  0  0  0  0
   -5.4033    1.9757    1.6390 O   0  0  0  0  0  0  0  0  0  0  0  0
   -7.4703    1.3928    0.6060 C   0  0  0  0  0  0  0  0  0  0  0  0
   -2.3186   -0.7239   -1.0642 C   0  0  0  0  0  0  0  0  0  0  0  0
   -3.2303    0.3621   -1.1950 O   0  0  0  0  0  0  0  0  0  0  0  0
   -4.4549    0.2426   -1.8568 C   0  0  0  0  0  0  0  0  0  0  0  0
   -4.8258   -0.8659   -2.3295 O   0  0  0  0  0  0  0  0  0  0  0  0
   -5.2934    1.3860   -1.9946 N   0  0  0  0  0  0  0  0  0  0  0  0
    6.3182    0.8668   -1.1033 C   0  0  0  0  0  0  0  0  0  0  0  0
    6.9450    1.7847   -0.4017 O   0  0  0  0  0  0  0  0  0  0  0  0
    7.9350    2.2654   -1.1162 C   0  0  0  0  0  0  0  0  0  0  0  0
    7.9632    1.6438   -2.3460 C   0  0  0  0  0  0  0  0  0  0  0  0
    6.9209    0.7429   -2.3437 C   0  0  0  0  0  0  0  0  0  0  0  0
    5.2904   -3.7701   -1.3232 H   0  0  0  0  0  0  0  0  0  0  0  0
    4.3690   -3.1209   -2.7449 H   0  0  0  0  0  0  0  0  0  0  0  0
    6.1265   -3.5179   -2.9076 H   0  0  0  0  0  0  0  0  0  0  0  0
    3.0582   -0.9869    0.7818 H   0  0  0  0  0  0  0  0  0  0  0  0
    2.6547    1.2945    2.6449 H   0  0  0  0  0  0  0  0  0  0  0  0
    0.8514    2.3431    1.6076 H   0  0  0  0  0  0  0  0  0  0  0  0
    0.8796   -0.9977   -0.7041 H   0  0  0  0  0  0  0  0  0  0  0  0
    0.0819   -0.2380   -2.1137 H   0  0  0  0  0  0  0  0  0  0  0  0
   -4.6582   -0.1568    3.2363 H   0  0  0  0  0  0  0  0  0  0  0  0
   -3.8783   -2.5256    3.0680 H   0  0  0  0  0  0  0  0  0  0  0  0
   -5.6797   -2.4388    3.1009 H   0  0  0  0  0  0  0  0  0  0  0  0
   -4.8184   -2.7335    1.5381 H   0  0  0  0  0  0  0  0  0  0  0  0
   -8.2677    1.5305    1.3652 H   0  0  0  0  0  0  0  0  0  0  0  0
   -7.7587    0.5712   -0.0826 H   0  0  0  0  0  0  0  0  0  0  0  0
   -7.3576    2.3293    0.0196 H   0  0  0  0  0  0  0  0  0  0  0  0
   -2.0255   -1.0676   -2.0792 H   0  0  0  0  0  0  0  0  0  0  0  0
   -2.8032   -1.5889   -0.5625 H   0  0  0  0  0  0  0  0  0  0  0  0
   -4.9905    2.3065   -1.6072 H   0  0  0  0  0  0  0  0  0  0  0  0
   -6.2114    1.3146   -2.4860 H   0  0  0  0  0  0  0  0  0  0  0  0
    8.6154    3.0353   -0.7785 H   0  0  0  0  0  0  0  0  0  0  0  0
    8.6570    1.8334   -3.1545 H   0  0  0  0  0  0  0  0  0  0  0  0
    6.6279    0.1042   -3.1655 H   0  0  0  0  0  0  0  0  0  0  0  0
  1  2  1  0
  2  3  1  0
  3  4  2  3
  4  5  1  0
  5  6  2  0
  5  7  1  0
  8  7  1  0
  8  9  1  0
  9 10  1  0
 10 11  1  0
 11 12  1  0
 12 13  2  0
 13 14  1  0
 14  9  1  0
 14 15  1  0
 15  8  1  0
 15 16  2  0
 13 17  1  0
 17 18  2  0
 17 19  1  0
 19 20  1  0
 20 21  1  0
 20 22  1  0
 22 23  1  0
 23 24  2  0
 23 25  1  0
 12 26  1  0
 26 27  1  0
 27 28  1  0
 28 29  2  0
 28 30  1  0
  4 31  1  0
 31 32  1  0
 32 33  1  0
 33 34  2  0
 34 35  1  0
 35 31  2  0
  1 36  1  0
  1 37  1  0
  1 38  1  0
  7 39  1  0
  8 40  1  1
  9 41  1  1
 11 42  1  0
 11 43  1  0
 20 44  1  0
 21 45  1  0
 21 46  1  0
 21 47  1  0
 25 48  1  0
 25 49  1  0
 25 50  1  0
 26 51  1  0
 26 52  1  0
 30 53  1  0
 30 54  1  0
 33 55  1  0
 34 56  1  0
 35 57  1  0
M  END
> <ID>
HT0428

> <Class>
1.0

> <Clusters>
45

> <Fold>
2

$$$$