
     RDKit          3D

 34 36  0  0  0  0  0  0  0  0999 V2000
    3.7522    1.0401   -0.6590 C   0  0  0  0  0  0  0  0  0  0  0  0
    2.3418    0.8239   -0.3192 N   0  0  0  0  0  0  0  0  0  0  0  0
    1.5024    1.9876   -0.2608 C   0  0  0  0  0  0  0  0  0  0  0  0
    1.7109    2.8628    0.6213 O   0  0  0  0  0  0  0  0  0  0  0  0
    0.4707    2.2320   -1.3147 C   0  0  0  0  0  0  0  0  0  0  0  0
   -0.1610    0.9385   -1.6830 C   0  0  0  0  0  0  0  0  0  0  0  0
   -0.3298    0.6228   -2.8908 O   0  0  0  0  0  0  0  0  0  0  0  0
   -0.5277    0.0326   -0.6421 N   0  0  0  0  0  0  0  0  0  0  0  0
   -1.8346    0.1500   -0.0386 C   0  0  0  0  0  0  0  0  0  0  0  0
   -1.9907    0.0404    1.3563 C   0  0  0  0  0  0  0  0  0  0  0  0
   -3.2551    0.1647    1.9394 C   0  0  0  0  0  0  0  0  0  0  0  0
   -4.3749    0.4043    1.1398 C   0  0  0  0  0  0  0  0  0  0  0  0
   -4.2320    0.5224   -0.2446 C   0  0  0  0  0  0  0  0  0  0  0  0
   -2.9695    0.3990   -0.8328 C   0  0  0  0  0  0  0  0  0  0  0  0
    0.4686   -0.8711   -0.1164 C   0  0  0  0  0  0  0  0  0  0  0  0
    0.0645   -2.1732    0.2347 C   0  0  0  0  0  0  0  0  0  0  0  0
    0.9798   -3.1040    0.7213 C   0  0  0  0  0  0  0  0  0  0  0  0
    0.4459   -4.7181    1.1539 Cl  0  0  0  0  0  0  0  0  0  0  0  0
    2.3187   -2.7532    0.8585 C   0  0  0  0  0  0  0  0  0  0  0  0
    2.7480   -1.4734    0.5099 C   0  0  0  0  0  0  0  0  0  0  0  0
    1.8457   -0.5040    0.0166 C   0  0  0  0  0  0  0  0  0  0  0  0
    4.0714    0.3077   -1.4305 H   0  0  0  0  0  0  0  0  0  0  0  0
    3.9132    2.0602   -1.0715 H   0  0  0  0  0  0  0  0  0  0  0  0
    4.3835    0.9356    0.2478 H   0  0  0  0  0  0  0  0  0  0  0  0
    0.9460    2.7031   -2.2015 H   0  0  0  0  0  0  0  0  0  0  0  0
   -0.3139    2.9125   -0.9200 H   0  0  0  0  0  0  0  0  0  0  0  0
   -1.1321   -0.1289    1.9936 H   0  0  0  0  0  0  0  0  0  0  0  0
   -3.3660    0.0792    3.0127 H   0  0  0  0  0  0  0  0  0  0  0  0
   -5.3530    0.5006    1.5931 H   0  0  0  0  0  0  0  0  0  0  0  0
   -5.1004    0.7087   -0.8632 H   0  0  0  0  0  0  0  0  0  0  0  0
   -2.8806    0.4854   -1.9077 H   0  0  0  0  0  0  0  0  0  0  0  0
   -0.9705   -2.4690    0.1155 H   0  0  0  0  0  0  0  0  0  0  0  0
    3.0327   -3.4736    1.2374 H   0  0  0  0  0  0  0  0  0  0  0  0
    3.7955   -1.2453    0.6448 H   0  0  0  0  0  0  0  0  0  0  0  0
  1  2  1  0
  2  3  1  0
  3  4  2  0
  3  5  1  0
  5  6  1  0
  6  7  2  0
  6  8  1  0
  8  9  1  0
  9 10  2  0
 10 11  1  0
 11 12  2  0
 12 13  1  0
 13 14  2  0
 14  9  1  0
  8 15  1  0
 15 16  2  0
 16 17  1  0
 17 18  1  0
 17 19  2  0
 19 20  1  0
 20 21  2  0
 21  2  1  0
 21 15  1  0
  1 22  1  0
  1 23  1  0
  1 24  1  0
  5 25  1  0
  5 26  1  0
 10 27  1  0
 11 28  1  0
 12 29  1  0
 13 30  1  0
 14 31  1  0
 16 32  1  0
 19 33  1  0
 20 34  1  0
M  END
> <ID>
HT0515

> <Class>
1.0

> <Clusters>
105

> <Fold>
2

$$$$