
     RDKit          3D

 36 38  0  0  0  0  0  0  0  0999 V2000
   -3.2254   -2.3729    2.3381 O   0  0  0  0  0  0  0  0  0  0  0  0
   -2.3919   -2.3683    1.2238 C   0  0  0  0  0  0  0  0  0  0  0  0
   -2.1704   -3.4431    0.6026 O   0  0  0  0  0  0  0  0  0  0  0  0
   -1.7986   -1.0734    0.7431 C   0  0  0  0  0  0  0  0  0  0  0  0
   -0.4255   -1.3063    0.2987 N   0  0  0  0  0  0  0  0  0  0  0  0
    0.4509   -0.3730    0.0614 C   0  0  0  0  0  0  0  0  0  0  0  0
    1.8120   -0.7736   -0.3816 C   0  0  0  0  0  0  0  0  0  0  0  0
    2.5814    0.0731   -1.2032 C   0  0  0  0  0  0  0  0  0  0  0  0
    3.8569   -0.3152   -1.6240 C   0  0  0  0  0  0  0  0  0  0  0  0
    4.3762   -1.5525   -1.2374 C   0  0  0  0  0  0  0  0  0  0  0  0
    3.6194   -2.4063   -0.4322 C   0  0  0  0  0  0  0  0  0  0  0  0
    2.3431   -2.0234   -0.0085 C   0  0  0  0  0  0  0  0  0  0  0  0
    0.1077    1.0623    0.2575 C   0  0  0  0  0  0  0  0  0  0  0  0
    1.0161    1.9063    0.9220 C   0  0  0  0  0  0  0  0  0  0  0  0
    0.7348    3.2652    1.0861 C   0  0  0  0  0  0  0  0  0  0  0  0
    1.8810    4.3050    1.9118 Cl  0  0  0  0  0  0  0  0  0  0  0  0
   -0.4555    3.7962    0.5866 C   0  0  0  0  0  0  0  0  0  0  0  0
   -1.3698    2.9689   -0.0676 C   0  0  0  0  0  0  0  0  0  0  0  0
   -1.1109    1.5984   -0.2187 C   0  0  0  0  0  0  0  0  0  0  0  0
   -2.0617    0.7854   -0.9261 N   0  0  0  0  0  0  0  0  0  0  0  0
   -2.6436   -0.4651   -0.4061 C   0  0  0  0  0  0  0  0  0  0  0  0
   -3.9480   -0.2091    0.0600 O   0  0  0  0  0  0  0  0  0  0  0  0
   -2.7106   -1.3981   -1.4560 O   0  0  0  0  0  0  0  0  0  0  0  0
   -3.6471   -3.2328    2.6679 H   0  0  0  0  0  0  0  0  0  0  0  0
   -1.7862   -0.3769    1.6119 H   0  0  0  0  0  0  0  0  0  0  0  0
    2.1927    1.0285   -1.5322 H   0  0  0  0  0  0  0  0  0  0  0  0
    4.4412    0.3424   -2.2546 H   0  0  0  0  0  0  0  0  0  0  0  0
    5.3636   -1.8512   -1.5648 H   0  0  0  0  0  0  0  0  0  0  0  0
    4.0220   -3.3661   -0.1353 H   0  0  0  0  0  0  0  0  0  0  0  0
    1.7765   -2.6991    0.6201 H   0  0  0  0  0  0  0  0  0  0  0  0
    1.9446    1.5078    1.3129 H   0  0  0  0  0  0  0  0  0  0  0  0
   -0.6738    4.8500    0.7046 H   0  0  0  0  0  0  0  0  0  0  0  0
   -2.2896    3.3934   -0.4502 H   0  0  0  0  0  0  0  0  0  0  0  0
   -2.5793    1.2419   -1.7118 H   0  0  0  0  0  0  0  0  0  0  0  0
   -3.8849    0.5214    0.7302 H   0  0  0  0  0  0  0  0  0  0  0  0
   -3.3471   -1.0399   -2.1289 H   0  0  0  0  0  0  0  0  0  0  0  0
  1  2  1  0
  2  3  2  0
  2  4  1  0
  4  5  1  0
  5  6  2  0
  6  7  1  0
  7  8  2  0
  8  9  1  0
  9 10  2  0
 10 11  1  0
 11 12  2  0
 12  7  1  0
  6 13  1  0
 13 14  2  0
 14 15  1  0
 15 16  1  0
 15 17  2  0
 17 18  1  0
 18 19  2  0
 19 13  1  0
 19 20  1  0
 20 21  1  0
 21  4  1  0
 21 22  1  0
 21 23  1  0
  1 24  1  0
  4 25  1  0
  8 26  1  0
  9 27  1  0
 10 28  1  0
 11 29  1  0
 12 30  1  0
 14 31  1  0
 17 32  1  0
 18 33  1  0
 20 34  1  0
 22 35  1  0
 23 36  1  0
M  END
> <ID>
HT0533

> <Class>
1.0

> <Clusters>
185

> <Fold>
2

$$$$