
     RDKit          3D

 66 67  0  0  0  0  0  0  0  0999 V2000
   -3.3179    4.8959    0.5172 C   0  0  0  0  0  0  0  0  0  0  0  0
   -1.7992    5.0160    0.2917 C   0  0  0  0  0  0  0  0  0  0  0  0
   -1.2679    6.2349    1.0768 C   0  0  0  0  0  0  0  0  0  0  0  0
   -1.5154    5.2209   -1.2085 C   0  0  0  0  0  0  0  0  0  0  0  0
   -1.1321    3.7328    0.7489 C   0  0  0  0  0  0  0  0  0  0  0  0
   -0.2874    3.7400    1.6886 O   0  0  0  0  0  0  0  0  0  0  0  0
   -1.4646    2.5294    0.1131 O   0  0  0  0  0  0  0  0  0  0  0  0
   -0.9180    1.2719    0.4939 C   0  0  0  0  0  0  0  0  0  0  0  0
   -1.3673    0.9453    1.7888 O   0  0  0  0  0  0  0  0  0  0  0  0
   -1.0138   -0.6949    2.1056 P   0  0  0  0  0  0  0  0  0  0  0  0
   -1.5069   -1.0098    3.5006 O   0  0  0  0  0  0  0  0  0  0  0  0
    0.7831   -0.9928    2.0517 C   0  0  0  0  0  0  0  0  0  0  0  0
    1.2149   -1.0038    0.7081 O   0  0  0  0  0  0  0  0  0  0  0  0
    2.6259   -1.0781    0.6424 C   0  0  0  0  0  0  0  0  0  0  0  0
    3.2343    0.3258    0.5623 C   0  0  0  0  0  0  0  0  0  0  0  0
    4.6741    0.2459    0.3213 N   0  0  0  0  0  0  0  0  0  0  0  0
    5.6289   -0.2531    1.1498 C   0  0  0  0  0  0  0  0  0  0  0  0
    6.8873   -0.1707    0.6348 N   0  0  0  0  0  0  0  0  0  0  0  0
    6.6796    0.4104   -0.5626 C   0  0  0  0  0  0  0  0  0  0  0  0
    7.5966    0.7526   -1.5500 C   0  0  0  0  0  0  0  0  0  0  0  0
    8.9950    0.5068   -1.3960 N   0  0  0  0  0  0  0  0  0  0  0  0
    7.1133    1.3391   -2.6865 N   0  0  0  0  0  0  0  0  0  0  0  0
    5.7725    1.5830   -2.8514 C   0  0  0  0  0  0  0  0  0  0  0  0
    4.8793    1.2420   -1.8736 N   0  0  0  0  0  0  0  0  0  0  0  0
    5.3629    0.6613   -0.7483 C   0  0  0  0  0  0  0  0  0  0  0  0
   -1.8397   -1.6698    0.9714 O   0  0  0  0  0  0  0  0  0  0  0  0
   -1.6344   -3.0252    1.2953 C   0  0  0  0  0  0  0  0  0  0  0  0
   -2.4132   -3.8361    0.4219 O   0  0  0  0  0  0  0  0  0  0  0  0
   -3.8132   -3.7988    0.3934 C   0  0  0  0  0  0  0  0  0  0  0  0
   -4.4375   -3.0246    1.1711 O   0  0  0  0  0  0  0  0  0  0  0  0
   -4.5748   -4.6185   -0.6302 C   0  0  0  0  0  0  0  0  0  0  0  0
   -4.9164   -3.7158   -1.8283 C   0  0  0  0  0  0  0  0  0  0  0  0
   -5.8760   -5.1676   -0.0083 C   0  0  0  0  0  0  0  0  0  0  0  0
   -3.7168   -5.8053   -1.1124 C   0  0  0  0  0  0  0  0  0  0  0  0
   -3.7370    4.0382   -0.0520 H   0  0  0  0  0  0  0  0  0  0  0  0
   -3.8394    5.8207    0.1859 H   0  0  0  0  0  0  0  0  0  0  0  0
   -3.5387    4.7400    1.5953 H   0  0  0  0  0  0  0  0  0  0  0  0
   -1.4658    6.1190    2.1645 H   0  0  0  0  0  0  0  0  0  0  0  0
   -1.7628    7.1700    0.7347 H   0  0  0  0  0  0  0  0  0  0  0  0
   -0.1712    6.3497    0.9284 H   0  0  0  0  0  0  0  0  0  0  0  0
   -0.4194    5.2653   -1.3959 H   0  0  0  0  0  0  0  0  0  0  0  0
   -1.9392    4.3857   -1.8056 H   0  0  0  0  0  0  0  0  0  0  0  0
   -1.9717    6.1696   -1.5688 H   0  0  0  0  0  0  0  0  0  0  0  0
    0.1916    1.3433    0.4743 H   0  0  0  0  0  0  0  0  0  0  0  0
   -1.2523    0.5261   -0.2618 H   0  0  0  0  0  0  0  0  0  0  0  0
    1.2780   -0.1879    2.6377 H   0  0  0  0  0  0  0  0  0  0  0  0
    0.9884   -1.9759    2.5297 H   0  0  0  0  0  0  0  0  0  0  0  0
    3.0765   -1.6521    1.4874 H   0  0  0  0  0  0  0  0  0  0  0  0
    2.8932   -1.6273   -0.2850 H   0  0  0  0  0  0  0  0  0  0  0  0
    3.0564    0.8755    1.5117 H   0  0  0  0  0  0  0  0  0  0  0  0
    2.7401    0.8906   -0.2593 H   0  0  0  0  0  0  0  0  0  0  0  0
    5.4158   -0.6722    2.1250 H   0  0  0  0  0  0  0  0  0  0  0  0
    9.6613    0.7792   -2.1522 H   0  0  0  0  0  0  0  0  0  0  0  0
    9.3705    0.0554   -0.5316 H   0  0  0  0  0  0  0  0  0  0  0  0
    5.4204    2.0485   -3.7618 H   0  0  0  0  0  0  0  0  0  0  0  0
   -1.9326   -3.2500    2.3450 H   0  0  0  0  0  0  0  0  0  0  0  0
   -0.5675   -3.2985    1.1477 H   0  0  0  0  0  0  0  0  0  0  0  0
   -3.9919   -3.2870   -2.2694 H   0  0  0  0  0  0  0  0  0  0  0  0
   -5.4467   -4.2908   -2.6157 H   0  0  0  0  0  0  0  0  0  0  0  0
   -5.5698   -2.8750   -1.5103 H   0  0  0  0  0  0  0  0  0  0  0  0
   -6.5387   -4.3394    0.3239 H   0  0  0  0  0  0  0  0  0  0  0  0
   -5.6476   -5.8094    0.8694 H   0  0  0  0  0  0  0  0  0  0  0  0
   -6.4377   -5.7767   -0.7487 H   0  0  0  0  0  0  0  0  0  0  0  0
   -2.7901   -5.4460   -1.6107 H   0  0  0  0  0  0  0  0  0  0  0  0
   -3.4278   -6.4516   -0.2552 H   0  0  0  0  0  0  0  0  0  0  0  0
   -4.2799   -6.4261   -1.8421 H   0  0  0  0  0  0  0  0  0  0  0  0
  1  2  1  0
  2  3  1  0
  2  4  1  0
  2  5  1  0
  5  6  2  0
  5  7  1  0
  7  8  1  0
  8  9  1  0
  9 10  1  0
 10 11  2  0
 10 12  1  0
 12 13  1  0
 13 14  1  0
 14 15  1  0
 15 16  1  0
 16 17  1  0
 17 18  2  0
 18 19  1  0
 19 20  2  0
 20 21  1  0
 20 22  1  0
 22 23  2  0
 23 24  1  0
 24 25  2  0
 25 16  1  0
 25 19  1  0
 10 26  1  0
 26 27  1  0
 27 28  1  0
 28 29  1  0
 29 30  2  0
 29 31  1  0
 31 32  1  0
 31 33  1  0
 31 34  1  0
  1 35  1  0
  1 36  1  0
  1 37  1  0
  3 38  1  0
  3 39  1  0
  3 40  1  0
  4 41  1  0
  4 42  1  0
  4 43  1  0
  8 44  1  0
  8 45  1  0
 12 46  1  0
 12 47  1  0
 14 48  1  0
 14 49  1  0
 15 50  1  0
 15 51  1  0
 17 52  1  0
 21 53  1  0
 21 54  1  0
 23 55  1  0
 27 56  1  0
 27 57  1  0
 32 58  1  0
 32 59  1  0
 32 60  1  0
 33 61  1  0
 33 62  1  0
 33 63  1  0
 34 64  1  0
 34 65  1  0
 34 66  1  0
M  END
> <ID>
HT0072

> <Class>
1.0

> <Clusters>
6

> <Fold>
2

$$$$