
     RDKit          3D

 32 34  0  0  0  0  0  0  0  0999 V2000
   -1.0395    3.6553   -2.1038 O   0  0  0  0  0  0  0  0  0  0  0  0
   -2.1526    3.0883   -1.5262 N   0  0  0  0  0  0  0  0  0  0  0  0
   -3.2238    3.7300   -1.5299 O   0  0  0  0  0  0  0  0  0  0  0  0
   -2.0823    1.7797   -0.9296 C   0  0  0  0  0  0  0  0  0  0  0  0
   -3.2133    1.2043   -0.3330 C   0  0  0  0  0  0  0  0  0  0  0  0
   -3.1417   -0.0640    0.2411 C   0  0  0  0  0  0  0  0  0  0  0  0
   -1.9461   -0.7961    0.2261 C   0  0  0  0  0  0  0  0  0  0  0  0
   -1.9407   -2.0965    0.8401 N   0  0  0  0  0  0  0  0  0  0  0  0
   -1.2608   -3.2268    0.2847 C   0  0  0  0  0  0  0  0  0  0  0  0
   -1.4138   -4.3637    0.8060 O   0  0  0  0  0  0  0  0  0  0  0  0
   -0.3683   -3.0714   -0.9008 C   0  0  0  0  0  0  0  0  0  0  0  0
    0.7059   -2.1479   -0.5694 N   0  0  0  0  0  0  0  0  0  0  0  0
    0.5544   -0.8806   -0.3126 C   0  0  0  0  0  0  0  0  0  0  0  0
    1.7582   -0.0808    0.0254 C   0  0  0  0  0  0  0  0  0  0  0  0
    1.7070    0.7993    1.1222 C   0  0  0  0  0  0  0  0  0  0  0  0
    2.8244    1.5580    1.4777 C   0  0  0  0  0  0  0  0  0  0  0  0
    4.0056    1.4500    0.7433 C   0  0  0  0  0  0  0  0  0  0  0  0
    4.0710    0.5868   -0.3520 C   0  0  0  0  0  0  0  0  0  0  0  0
    2.9574   -0.1794   -0.7191 C   0  0  0  0  0  0  0  0  0  0  0  0
    3.0902   -1.1937   -2.1531 Cl  0  0  0  0  0  0  0  0  0  0  0  0
   -0.7843   -0.2178   -0.3497 C   0  0  0  0  0  0  0  0  0  0  0  0
   -0.8753    1.0630   -0.9286 C   0  0  0  0  0  0  0  0  0  0  0  0
   -4.1565    1.7349   -0.3107 H   0  0  0  0  0  0  0  0  0  0  0  0
   -4.0307   -0.4875    0.6919 H   0  0  0  0  0  0  0  0  0  0  0  0
   -2.6149   -2.2784    1.6183 H   0  0  0  0  0  0  0  0  0  0  0  0
    0.0753   -4.0523   -1.1744 H   0  0  0  0  0  0  0  0  0  0  0  0
   -0.9455   -2.6959   -1.7732 H   0  0  0  0  0  0  0  0  0  0  0  0
    0.8027    0.8902    1.7117 H   0  0  0  0  0  0  0  0  0  0  0  0
    2.7748    2.2289    2.3256 H   0  0  0  0  0  0  0  0  0  0  0  0
    4.8700    2.0397    1.0198 H   0  0  0  0  0  0  0  0  0  0  0  0
    4.9888    0.5202   -0.9226 H   0  0  0  0  0  0  0  0  0  0  0  0
    0.0046    1.5042   -1.3803 H   0  0  0  0  0  0  0  0  0  0  0  0
  1  2  1  0
  2  3  2  0
  2  4  1  0
  4  5  2  0
  5  6  1  0
  6  7  2  0
  7  8  1  0
  8  9  1  0
  9 10  2  0
  9 11  1  0
 11 12  1  0
 12 13  2  0
 13 14  1  0
 14 15  2  0
 15 16  1  0
 16 17  2  0
 17 18  1  0
 18 19  2  0
 19 14  1  0
 19 20  1  0
 13 21  1  0
 21  7  1  0
 21 22  2  0
 22  4  1  0
  5 23  1  0
  6 24  1  0
  8 25  1  0
 11 26  1  0
 11 27  1  0
 15 28  1  0
 16 29  1  0
 17 30  1  0
 18 31  1  0
 22 32  1  0
M  CHG  2   1  -1   2   1
M  END
> <ID>
HT0530

> <Class>
1.0

> <Clusters>
105

> <Fold>
2

$$$$