
     RDKit          3D

 23 24  0  0  0  0  0  0  0  0999 V2000
    3.4110   -0.5691    0.4034 O   0  0  0  0  0  0  0  0  0  0  0  0
    2.9693    0.4199   -0.4874 C   0  0  0  0  0  0  0  0  0  0  0  0
    1.6638    0.9922   -0.0237 C   0  0  0  0  0  0  0  0  0  0  0  0
    0.5345    0.2798   -0.0326 C   0  0  0  0  0  0  0  0  0  0  0  0
    0.4498   -1.0464   -0.4862 O   0  0  0  0  0  0  0  0  0  0  0  0
   -0.8765   -1.5393   -0.3134 C   0  0  2  0  0  0  0  0  0  0  0  0
   -1.6254   -1.7575   -1.5169 C   0  0  0  0  0  0  0  0  0  0  0  0
   -2.4941   -0.6079   -1.1123 C   0  0  0  0  0  0  0  0  0  0  0  0
   -3.5095   -0.0436   -1.5963 O   0  0  0  0  0  0  0  0  0  0  0  0
   -1.6065   -0.3562    0.0470 N   0  0  0  0  0  0  0  0  0  0  0  0
   -0.8073    0.7913    0.4040 C   0  0  1  0  0  0  0  0  0  0  0  0
   -0.8638    1.0369    1.8849 C   0  0  0  0  0  0  0  0  0  0  0  0
   -0.6116    0.1033    2.6928 O   0  0  0  0  0  0  0  0  0  0  0  0
   -1.1898    2.2961    2.3798 O   0  0  0  0  0  0  0  0  0  0  0  0
    3.0252   -1.4299    0.0949 H   0  0  0  0  0  0  0  0  0  0  0  0
    3.7265    1.2314   -0.5116 H   0  0  0  0  0  0  0  0  0  0  0  0
    2.8716    0.0203   -1.5233 H   0  0  0  0  0  0  0  0  0  0  0  0
    1.6383    2.0211    0.3149 H   0  0  0  0  0  0  0  0  0  0  0  0
   -0.9571   -2.3334    0.4619 H   0  0  0  0  0  0  0  0  0  0  0  0
   -2.1837   -2.7180   -1.5181 H   0  0  0  0  0  0  0  0  0  0  0  0
   -1.0611   -1.5428   -2.4502 H   0  0  0  0  0  0  0  0  0  0  0  0
   -1.1103    1.6822   -0.1872 H   0  0  0  0  0  0  0  0  0  0  0  0
   -1.3932    3.0696    1.7583 H   0  0  0  0  0  0  0  0  0  0  0  0
  1  2  1  0
  2  3  1  0
  3  4  2  0
  4  5  1  0
  5  6  1  0
  6  7  1  0
  7  8  1  0
  8  9  2  0
  8 10  1  0
 10  6  1  0
 10 11  1  0
 11  4  1  0
 11 12  1  0
 12 13  2  0
 12 14  1  0
  1 15  1  0
  2 16  1  0
  2 17  1  0
  3 18  1  0
  6 19  1  1
  7 20  1  0
  7 21  1  0
 11 22  1  6
 14 23  1  0
M  END
> <ID>
HT0505

> <Class>
1.0

> <Clusters>
219

> <Fold>
2

$$$$