
     RDKit          3D

 27 28  0  0  0  0  0  0  0  0999 V2000
    4.2983   -0.4091   -2.2057 O   0  0  0  0  0  0  0  0  0  0  0  0
    3.4912   -0.4150   -1.2382 C   0  0  0  0  0  0  0  0  0  0  0  0
    3.8278   -0.9963   -0.0460 N   0  0  0  0  0  0  0  0  0  0  0  0
    2.2350    0.1626   -1.3476 C   0  0  0  0  0  0  0  0  0  0  0  0
    1.6584    0.7649   -2.4054 N   0  0  0  0  0  0  0  0  0  0  0  0
    1.3889    0.1376   -0.2948 C   0  0  0  0  0  0  0  0  0  0  0  0
    0.4277    1.0980   -1.9251 C   0  0  0  0  0  0  0  0  0  0  0  0
    0.2410    0.7367   -0.6299 N   0  0  0  0  0  0  0  0  0  0  0  0
    1.7081   -0.4423    0.8867 N   0  0  0  0  0  0  0  0  0  0  0  0
   -0.9808    0.8488    0.1579 C   0  0  0  0  0  0  0  0  0  0  0  0
    2.9456   -1.0139    1.0107 C   0  0  0  0  0  0  0  0  0  0  0  0
   -1.7324   -0.3379    0.0128 O   0  0  0  0  0  0  0  0  0  0  0  0
    3.3157   -1.6307    2.2436 N   0  0  0  0  0  0  0  0  0  0  0  0
   -2.9914   -0.2100    0.6463 C   0  0  0  0  0  0  0  0  0  0  0  0
   -4.0595    0.1810   -0.3763 C   0  0  0  0  0  0  0  0  0  0  0  0
   -5.3262    0.1927    0.2235 O   0  0  0  0  0  0  0  0  0  0  0  0
    4.7695   -1.4373    0.0602 H   0  0  0  0  0  0  0  0  0  0  0  0
   -0.3283    1.5890   -2.5244 H   0  0  0  0  0  0  0  0  0  0  0  0
   -0.7085    1.0043    1.2264 H   0  0  0  0  0  0  0  0  0  0  0  0
   -1.5550    1.7361   -0.1943 H   0  0  0  0  0  0  0  0  0  0  0  0
    4.2546   -2.0727    2.3583 H   0  0  0  0  0  0  0  0  0  0  0  0
    2.6481   -1.6461    3.0462 H   0  0  0  0  0  0  0  0  0  0  0  0
   -2.9927    0.5091    1.5003 H   0  0  0  0  0  0  0  0  0  0  0  0
   -3.2609   -1.2007    1.0703 H   0  0  0  0  0  0  0  0  0  0  0  0
   -3.8313    1.1779   -0.8160 H   0  0  0  0  0  0  0  0  0  0  0  0
   -4.0650   -0.5629   -1.2011 H   0  0  0  0  0  0  0  0  0  0  0  0
   -5.3777    1.0257    0.7614 H   0  0  0  0  0  0  0  0  0  0  0  0
  1  2  2  0
  2  3  1  0
  2  4  1  0
  4  5  1  0
  6  4  2  0
  5  7  2  0
  8  6  1  0
  6  9  1  0
  7  8  1  0
  8 10  1  0
  9 11  2  0
 10 12  1  0
 13 11  1  0
 11  3  1  0
 12 14  1  0
 14 15  1  0
 15 16  1  0
  3 17  1  0
  7 18  1  0
 10 19  1  0
 10 20  1  0
 13 21  1  0
 13 22  1  0
 14 23  1  0
 14 24  1  0
 15 25  1  0
 15 26  1  0
 16 27  1  0
M  END
> <ID>
HT0070

> <Class>
1.0

> <Clusters>
116

> <Fold>
2

$$$$