
     RDKit          3D

 40 41  0  0  0  0  0  0  0  0999 V2000
   -2.1531   -2.6074   -1.5189 C   0  0  0  0  0  0  0  0  0  0  0  0
   -2.0119   -2.1177   -0.0777 C   0  0  0  0  0  0  0  0  0  0  0  0
   -0.9500   -1.0426    0.0685 C   0  0  0  0  0  0  0  0  0  0  0  0
    0.3910   -1.2988    0.0156 C   0  0  0  0  0  0  0  0  0  0  0  0
    0.9714   -2.6928   -0.1499 C   0  0  0  0  0  0  0  0  0  0  0  0
    1.6759   -2.8390   -1.4979 C   0  0  0  0  0  0  0  0  0  0  0  0
    1.3737   -0.1857    0.0904 C   0  0  0  0  0  0  0  0  0  0  0  0
    2.3032   -0.1283    1.1412 C   0  0  0  0  0  0  0  0  0  0  0  0
    3.2248    0.9207    1.2099 C   0  0  0  0  0  0  0  0  0  0  0  0
    3.2315    1.9177    0.2290 C   0  0  0  0  0  0  0  0  0  0  0  0
    4.1543    2.9578    0.3116 O   0  0  0  0  0  0  0  0  0  0  0  0
    2.3116    1.8607   -0.8266 C   0  0  0  0  0  0  0  0  0  0  0  0
    1.3896    0.8128   -0.8980 C   0  0  0  0  0  0  0  0  0  0  0  0
   -1.4442    0.3277    0.3666 C   0  0  0  0  0  0  0  0  0  0  0  0
   -1.1224    0.9506    1.5847 C   0  0  0  0  0  0  0  0  0  0  0  0
   -1.5842    2.2405    1.8610 C   0  0  0  0  0  0  0  0  0  0  0  0
   -2.3789    2.9174    0.9305 C   0  0  0  0  0  0  0  0  0  0  0  0
   -2.8310    4.2032    1.2182 O   0  0  0  0  0  0  0  0  0  0  0  0
   -2.7137    2.2963   -0.2803 C   0  0  0  0  0  0  0  0  0  0  0  0
   -2.2523    1.0065   -0.5595 C   0  0  0  0  0  0  0  0  0  0  0  0
   -3.0323   -3.2815   -1.5935 H   0  0  0  0  0  0  0  0  0  0  0  0
   -1.2607   -3.1768   -1.8413 H   0  0  0  0  0  0  0  0  0  0  0  0
   -2.3068   -1.7524   -2.2096 H   0  0  0  0  0  0  0  0  0  0  0  0
   -2.9995   -1.7091    0.2308 H   0  0  0  0  0  0  0  0  0  0  0  0
   -1.8157   -2.9664    0.6100 H   0  0  0  0  0  0  0  0  0  0  0  0
    1.7119   -2.8784    0.6565 H   0  0  0  0  0  0  0  0  0  0  0  0
    0.2187   -3.4969   -0.0524 H   0  0  0  0  0  0  0  0  0  0  0  0
    2.5622   -2.1711   -1.5456 H   0  0  0  0  0  0  0  0  0  0  0  0
    2.0195   -3.8869   -1.6271 H   0  0  0  0  0  0  0  0  0  0  0  0
    0.9878   -2.5831   -2.3305 H   0  0  0  0  0  0  0  0  0  0  0  0
    2.3035   -0.8843    1.9163 H   0  0  0  0  0  0  0  0  0  0  0  0
    3.9328    0.9607    2.0279 H   0  0  0  0  0  0  0  0  0  0  0  0
    4.1845    3.6951   -0.3830 H   0  0  0  0  0  0  0  0  0  0  0  0
    2.3113    2.6263   -1.5920 H   0  0  0  0  0  0  0  0  0  0  0  0
    0.6886    0.7773   -1.7230 H   0  0  0  0  0  0  0  0  0  0  0  0
   -0.5143    0.4365    2.3188 H   0  0  0  0  0  0  0  0  0  0  0  0
   -1.3259    2.7139    2.7997 H   0  0  0  0  0  0  0  0  0  0  0  0
   -3.4084    4.7198    0.5650 H   0  0  0  0  0  0  0  0  0  0  0  0
   -3.3294    2.8125   -1.0058 H   0  0  0  0  0  0  0  0  0  0  0  0
   -2.5132    0.5454   -1.5028 H   0  0  0  0  0  0  0  0  0  0  0  0
  1  2  1  0
  2  3  1  0
  3  4  2  3
  4  5  1  0
  5  6  1  0
  4  7  1  0
  7  8  2  0
  8  9  1  0
  9 10  2  0
 10 11  1  0
 10 12  1  0
 12 13  2  0
 13  7  1  0
  3 14  1  0
 14 15  2  0
 15 16  1  0
 16 17  2  0
 17 18  1  0
 17 19  1  0
 19 20  2  0
 20 14  1  0
  1 21  1  0
  1 22  1  0
  1 23  1  0
  2 24  1  0
  2 25  1  0
  5 26  1  0
  5 27  1  0
  6 28  1  0
  6 29  1  0
  6 30  1  0
  8 31  1  0
  9 32  1  0
 11 33  1  0
 12 34  1  0
 13 35  1  0
 15 36  1  0
 16 37  1  0
 18 38  1  0
 19 39  1  0
 20 40  1  0
M  END
> <ID>
HT0657

> <Class>
1.0

> <Clusters>
76

> <Fold>
2

$$$$