
     RDKit          3D

 92 92  0  0  0  0  0  0  0  0999 V2000
    5.0925    4.9179   -3.6656 C   0  0  0  0  0  0  0  0  0  0  0  0
    5.2146    3.5169   -3.7692 O   0  0  0  0  0  0  0  0  0  0  0  0
    4.7339    2.9173   -2.5849 C   0  0  0  0  0  0  0  0  0  0  0  0
    4.8786    1.4002   -2.6996 C   0  0  0  0  0  0  0  0  0  0  0  0
    4.3710    0.6998   -1.4417 C   0  0  0  0  0  0  0  0  0  0  0  0
    4.5018   -0.7115   -1.5963 O   0  0  0  0  0  0  0  0  0  0  0  0
    4.0790   -1.6519   -0.6451 C   0  0  0  0  0  0  0  0  0  0  0  0
    3.5367   -1.2724    0.5947 C   0  0  0  0  0  0  0  0  0  0  0  0
    3.0570   -2.2390    1.4929 C   0  0  0  0  0  0  0  0  0  0  0  0
    2.4300   -1.8222    2.8054 C   0  0  0  0  0  0  0  0  0  0  0  0
    0.9670   -1.2922    2.7157 C   0  0  1  0  0  0  0  0  0  0  0  0
    0.8843    0.0204    1.8818 C   0  0  0  0  0  0  0  0  0  0  0  0
   -0.4781    0.7548    1.9300 C   0  0  0  0  0  0  0  0  0  0  0  0
   -0.9286    0.8994    3.3192 N   0  0  0  0  0  0  0  0  0  0  0  0
   -0.4382    2.1443    1.2276 C   0  0  1  0  0  0  0  0  0  0  0  0
    0.5055    2.9573    1.8819 O   0  0  0  0  0  0  0  0  0  0  0  0
   -0.0981    2.1145   -0.2925 C   0  0  0  0  0  0  0  0  0  0  0  0
   -1.1687    1.5746   -1.2944 C   0  0  1  0  0  0  0  0  0  0  0  0
   -1.1103    0.0376   -1.5898 C   0  0  0  0  0  0  0  0  0  0  0  0
   -2.2328   -0.3954   -2.5530 C   0  0  0  0  0  0  0  0  0  0  0  0
    0.2387   -0.3810   -2.2098 C   0  0  0  0  0  0  0  0  0  0  0  0
   -2.5544    2.0876   -0.9481 C   0  0  0  0  0  0  0  0  0  0  0  0
   -2.9748    3.1335   -1.5143 O   0  0  0  0  0  0  0  0  0  0  0  0
   -3.3813    1.4176    0.0168 N   0  0  0  0  0  0  0  0  0  0  0  0
   -4.5420    2.0509    0.6454 C   0  0  0  0  0  0  0  0  0  0  0  0
   -5.8835    1.4800    0.1111 C   0  0  0  0  0  0  0  0  0  0  0  0
   -6.0003    1.7569   -1.4064 C   0  0  0  0  0  0  0  0  0  0  0  0
   -5.9628   -0.0445    0.3425 C   0  0  0  0  0  0  0  0  0  0  0  0
   -7.0308    2.1503    0.8611 C   0  0  0  0  0  0  0  0  0  0  0  0
   -7.8798    2.8488    0.2427 O   0  0  0  0  0  0  0  0  0  0  0  0
   -7.1678    2.0009    2.2773 N   0  0  0  0  0  0  0  0  0  0  0  0
   -0.1166   -2.3625    2.3430 C   0  0  0  0  0  0  0  0  0  0  0  0
   -0.0348   -2.9167    0.9087 C   0  0  0  0  0  0  0  0  0  0  0  0
   -0.1632   -3.5184    3.3549 C   0  0  0  0  0  0  0  0  0  0  0  0
    3.2161   -3.5990    1.1823 C   0  0  0  0  0  0  0  0  0  0  0  0
    3.7758   -3.9914   -0.0478 C   0  0  0  0  0  0  0  0  0  0  0  0
    3.9251   -5.3389   -0.4093 O   0  0  0  0  0  0  0  0  0  0  0  0
    3.5161   -6.4388    0.3972 C   0  0  0  0  0  0  0  0  0  0  0  0
    4.1958   -3.0107   -0.9528 C   0  0  0  0  0  0  0  0  0  0  0  0
    5.4701    5.3755   -4.6032 H   0  0  0  0  0  0  0  0  0  0  0  0
    4.0284    5.2239   -3.5470 H   0  0  0  0  0  0  0  0  0  0  0  0
    5.7073    5.3148   -2.8271 H   0  0  0  0  0  0  0  0  0  0  0  0
    3.6569    3.1617   -2.4328 H   0  0  0  0  0  0  0  0  0  0  0  0
    5.3213    3.2649   -1.7034 H   0  0  0  0  0  0  0  0  0  0  0  0
    5.9491    1.1434   -2.8553 H   0  0  0  0  0  0  0  0  0  0  0  0
    4.2981    1.0413   -3.5775 H   0  0  0  0  0  0  0  0  0  0  0  0
    3.3012    0.9576   -1.2835 H   0  0  0  0  0  0  0  0  0  0  0  0
    4.9661    1.0348   -0.5643 H   0  0  0  0  0  0  0  0  0  0  0  0
    3.4814   -0.2278    0.8644 H   0  0  0  0  0  0  0  0  0  0  0  0
    2.4795   -2.6582    3.5338 H   0  0  0  0  0  0  0  0  0  0  0  0
    3.0660   -1.0270    3.2534 H   0  0  0  0  0  0  0  0  0  0  0  0
    0.7318   -0.9889    3.7599 H   0  0  0  0  0  0  0  0  0  0  0  0
    1.1168   -0.2037    0.8285 H   0  0  0  0  0  0  0  0  0  0  0  0
    1.6699    0.7146    2.2519 H   0  0  0  0  0  0  0  0  0  0  0  0
   -1.2216    0.1301    1.4116 H   0  0  0  0  0  0  0  0  0  0  0  0
   -0.2833    1.5405    3.8355 H   0  0  0  0  0  0  0  0  0  0  0  0
   -1.8816    1.3307    3.3267 H   0  0  0  0  0  0  0  0  0  0  0  0
   -1.4412    2.6097    1.3560 H   0  0  0  0  0  0  0  0  0  0  0  0
    0.2541    3.9016    1.7044 H   0  0  0  0  0  0  0  0  0  0  0  0
    0.0711    3.1752   -0.5847 H   0  0  0  0  0  0  0  0  0  0  0  0
    0.8888    1.6448   -0.4537 H   0  0  0  0  0  0  0  0  0  0  0  0
   -0.9111    2.0541   -2.2678 H   0  0  0  0  0  0  0  0  0  0  0  0
   -1.2422   -0.5374   -0.6563 H   0  0  0  0  0  0  0  0  0  0  0  0
   -2.1400   -1.4754   -2.7990 H   0  0  0  0  0  0  0  0  0  0  0  0
   -2.1860    0.1902   -3.4963 H   0  0  0  0  0  0  0  0  0  0  0  0
   -3.2313   -0.2576   -2.0925 H   0  0  0  0  0  0  0  0  0  0  0  0
    0.2161   -1.4551   -2.4966 H   0  0  0  0  0  0  0  0  0  0  0  0
    1.0736   -0.2738   -1.4934 H   0  0  0  0  0  0  0  0  0  0  0  0
    0.4608    0.2210   -3.1176 H   0  0  0  0  0  0  0  0  0  0  0  0
   -3.1446    0.4464    0.3101 H   0  0  0  0  0  0  0  0  0  0  0  0
   -4.4640    1.8892    1.7414 H   0  0  0  0  0  0  0  0  0  0  0  0
   -4.5129    3.1520    0.4917 H   0  0  0  0  0  0  0  0  0  0  0  0
   -6.9730    1.3874   -1.7978 H   0  0  0  0  0  0  0  0  0  0  0  0
   -5.9291    2.8469   -1.6129 H   0  0  0  0  0  0  0  0  0  0  0  0
   -5.1938    1.2445   -1.9714 H   0  0  0  0  0  0  0  0  0  0  0  0
   -5.7503   -0.3011    1.4022 H   0  0  0  0  0  0  0  0  0  0  0  0
   -6.9760   -0.4234    0.0853 H   0  0  0  0  0  0  0  0  0  0  0  0
   -5.2284   -0.5850   -0.2926 H   0  0  0  0  0  0  0  0  0  0  0  0
   -6.4903    1.4377    2.8360 H   0  0  0  0  0  0  0  0  0  0  0  0
   -7.9595    2.4600    2.7786 H   0  0  0  0  0  0  0  0  0  0  0  0
   -1.1058   -1.8662    2.4341 H   0  0  0  0  0  0  0  0  0  0  0  0
    0.6403   -3.7917    0.8456 H   0  0  0  0  0  0  0  0  0  0  0  0
    0.3039   -2.1571    0.1818 H   0  0  0  0  0  0  0  0  0  0  0  0
   -1.0411   -3.2625    0.5894 H   0  0  0  0  0  0  0  0  0  0  0  0
   -1.0558   -4.1524    3.1635 H   0  0  0  0  0  0  0  0  0  0  0  0
    0.7379   -4.1613    3.2751 H   0  0  0  0  0  0  0  0  0  0  0  0
   -0.2376   -3.1248    4.3910 H   0  0  0  0  0  0  0  0  0  0  0  0
    2.8855   -4.3441    1.8927 H   0  0  0  0  0  0  0  0  0  0  0  0
    2.4219   -6.3926    0.5811 H   0  0  0  0  0  0  0  0  0  0  0  0
    4.0660   -6.4307    1.3614 H   0  0  0  0  0  0  0  0  0  0  0  0
    3.7471   -7.3842   -0.1346 H   0  0  0  0  0  0  0  0  0  0  0  0
    4.6172   -3.3075   -1.9052 H   0  0  0  0  0  0  0  0  0  0  0  0
  1  2  1  0
  2  3  1  0
  3  4  1  0
  4  5  1  0
  5  6  1  0
  6  7  1  0
  7  8  2  0
  8  9  1  0
  9 10  1  0
 10 11  1  0
 11 12  1  0
 12 13  1  0
 13 14  1  0
 13 15  1  0
 15 16  1  0
 15 17  1  0
 17 18  1  0
 18 19  1  0
 19 20  1  0
 19 21  1  0
 18 22  1  0
 22 23  2  0
 22 24  1  0
 24 25  1  0
 25 26  1  0
 26 27  1  0
 26 28  1  0
 26 29  1  0
 29 30  2  0
 29 31  1  0
 11 32  1  0
 32 33  1  0
 32 34  1  0
  9 35  2  0
 35 36  1  0
 36 37  1  0
 37 38  1  0
 36 39  2  0
 39  7  1  0
  1 40  1  0
  1 41  1  0
  1 42  1  0
  3 43  1  0
  3 44  1  0
  4 45  1  0
  4 46  1  0
  5 47  1  0
  5 48  1  0
  8 49  1  0
 10 50  1  0
 10 51  1  0
 11 52  1  1
 12 53  1  0
 12 54  1  0
 13 55  1  0
 14 56  1  0
 14 57  1  0
 15 58  1  6
 16 59  1  0
 17 60  1  0
 17 61  1  0
 18 62  1  6
 19 63  1  0
 20 64  1  0
 20 65  1  0
 20 66  1  0
 21 67  1  0
 21 68  1  0
 21 69  1  0
 24 70  1  0
 25 71  1  0
 25 72  1  0
 27 73  1  0
 27 74  1  0
 27 75  1  0
 28 76  1  0
 28 77  1  0
 28 78  1  0
 31 79  1  0
 31 80  1  0
 32 81  1  0
 33 82  1  0
 33 83  1  0
 33 84  1  0
 34 85  1  0
 34 86  1  0
 34 87  1  0
 35 88  1  0
 38 89  1  0
 38 90  1  0
 38 91  1  0
 39 92  1  0
M  END
> <ID>
HT0099

> <Class>
1.0

> <Clusters>
9

> <Fold>
2

$$$$