
     RDKit          3D

 33 35  0  0  0  0  0  0  0  0999 V2000
   -3.1150   -1.8031   -0.4461 C   0  0  0  0  0  0  0  0  0  0  0  0
   -2.3233   -0.8897    0.3838 N   0  0  0  0  0  0  0  0  0  0  0  0
   -2.1144   -1.2096    1.7721 C   0  0  0  0  0  0  0  0  0  0  0  0
   -2.7700   -2.1407    2.3147 O   0  0  0  0  0  0  0  0  0  0  0  0
   -1.0985   -0.4659    2.5792 C   0  0  0  0  0  0  0  0  0  0  0  0
    0.2022   -0.5820    1.9318 N   0  0  0  0  0  0  0  0  0  0  0  0
    0.5083   -0.0746    0.7708 C   0  0  0  0  0  0  0  0  0  0  0  0
    1.8795   -0.2970    0.2408 C   0  0  0  0  0  0  0  0  0  0  0  0
    2.9608   -0.4955    1.1208 C   0  0  0  0  0  0  0  0  0  0  0  0
    4.2490   -0.7141    0.6230 C   0  0  0  0  0  0  0  0  0  0  0  0
    4.4722   -0.7445   -0.7552 C   0  0  0  0  0  0  0  0  0  0  0  0
    3.4069   -0.5601   -1.6389 C   0  0  0  0  0  0  0  0  0  0  0  0
    2.1167   -0.3410   -1.1470 C   0  0  0  0  0  0  0  0  0  0  0  0
   -0.4731    0.7486    0.0049 C   0  0  0  0  0  0  0  0  0  0  0  0
   -0.0422    1.9664   -0.5542 C   0  0  0  0  0  0  0  0  0  0  0  0
   -0.9212    2.7674   -1.2860 C   0  0  0  0  0  0  0  0  0  0  0  0
   -0.3618    4.2798   -1.9766 Cl  0  0  0  0  0  0  0  0  0  0  0  0
   -2.2450    2.3676   -1.4629 C   0  0  0  0  0  0  0  0  0  0  0  0
   -2.6931    1.1680   -0.9096 C   0  0  0  0  0  0  0  0  0  0  0  0
   -1.8218    0.3442   -0.1741 C   0  0  0  0  0  0  0  0  0  0  0  0
   -2.6745   -2.8218   -0.4056 H   0  0  0  0  0  0  0  0  0  0  0  0
   -3.1235   -1.4804   -1.5091 H   0  0  0  0  0  0  0  0  0  0  0  0
   -4.1604   -1.8398   -0.0735 H   0  0  0  0  0  0  0  0  0  0  0  0
   -1.3885    0.6025    2.6784 H   0  0  0  0  0  0  0  0  0  0  0  0
   -1.0297   -0.9016    3.5987 H   0  0  0  0  0  0  0  0  0  0  0  0
    2.8124   -0.4699    2.1932 H   0  0  0  0  0  0  0  0  0  0  0  0
    5.0752   -0.8594    1.3070 H   0  0  0  0  0  0  0  0  0  0  0  0
    5.4701   -0.9145   -1.1383 H   0  0  0  0  0  0  0  0  0  0  0  0
    3.5797   -0.5915   -2.7069 H   0  0  0  0  0  0  0  0  0  0  0  0
    1.3037   -0.2196   -1.8517 H   0  0  0  0  0  0  0  0  0  0  0  0
    0.9796    2.2984   -0.4152 H   0  0  0  0  0  0  0  0  0  0  0  0
   -2.9310    2.9888   -2.0247 H   0  0  0  0  0  0  0  0  0  0  0  0
   -3.7294    0.8846   -1.0433 H   0  0  0  0  0  0  0  0  0  0  0  0
  1  2  1  0
  2  3  1  0
  3  4  2  0
  3  5  1  0
  5  6  1  0
  6  7  2  0
  7  8  1  0
  8  9  2  0
  9 10  1  0
 10 11  2  0
 11 12  1  0
 12 13  2  0
 13  8  1  0
  7 14  1  0
 14 15  2  0
 15 16  1  0
 16 17  1  0
 16 18  2  0
 18 19  1  0
 19 20  2  0
 20  2  1  0
 20 14  1  0
  1 21  1  0
  1 22  1  0
  1 23  1  0
  5 24  1  0
  5 25  1  0
  9 26  1  0
 10 27  1  0
 11 28  1  0
 12 29  1  0
 13 30  1  0
 15 31  1  0
 18 32  1  0
 19 33  1  0
M  END
> <ID>
HT0636

> <Class>
1.0

> <Clusters>
105

> <Fold>
2

$$$$