
     RDKit          3D

 58 62  0  0  0  0  0  0  0  0999 V2000
   -6.1417   -3.0167   -1.9928 C   0  0  0  0  0  0  0  0  0  0  0  0
   -6.3009   -1.6019   -2.0186 O   0  0  0  0  0  0  0  0  0  0  0  0
   -5.4026   -0.6886   -1.4434 C   0  0  0  0  0  0  0  0  0  0  0  0
   -4.2386   -1.1077   -0.7764 C   0  0  0  0  0  0  0  0  0  0  0  0
   -3.3663   -0.1720   -0.2155 C   0  0  0  0  0  0  0  0  0  0  0  0
   -2.2499   -0.6035    0.4238 N   0  0  0  0  0  0  0  0  0  0  0  0
   -1.3714    0.2668    0.9850 C   0  0  0  0  0  0  0  0  0  0  0  0
   -1.6159    1.6012    0.9067 N   0  0  0  0  0  0  0  0  0  0  0  0
   -2.7133    2.1040    0.2813 C   0  0  0  0  0  0  0  0  0  0  0  0
   -2.8762    3.5281    0.2528 N   0  0  0  0  0  0  0  0  0  0  0  0
   -3.6405    1.2103   -0.3104 C   0  0  0  0  0  0  0  0  0  0  0  0
   -4.8096    1.6253   -0.9799 C   0  0  0  0  0  0  0  0  0  0  0  0
   -5.6890    0.6799   -1.5456 C   0  0  0  0  0  0  0  0  0  0  0  0
   -6.8613    1.0611   -2.2191 O   0  0  0  0  0  0  0  0  0  0  0  0
   -7.2884    2.4066   -2.4065 C   0  0  0  0  0  0  0  0  0  0  0  0
   -0.1953   -0.2252    1.6600 N   0  0  0  0  0  0  0  0  0  0  0  0
    0.8189    0.7027    2.1823 C   0  0  0  0  0  0  0  0  0  0  0  0
    2.2269    0.1443    1.9437 C   0  0  0  0  0  0  0  0  0  0  0  0
    2.3276   -1.2760    2.3179 N   0  0  0  0  0  0  0  0  0  0  0  0
    1.1383   -1.9838    2.8085 C   0  0  0  0  0  0  0  0  0  0  0  0
   -0.0673   -1.6683    1.9176 C   0  0  0  0  0  0  0  0  0  0  0  0
    3.6086   -1.9424    2.3423 C   0  0  0  0  0  0  0  0  0  0  0  0
    3.8186   -2.8524    3.1902 O   0  0  0  0  0  0  0  0  0  0  0  0
    4.6924   -1.6337    1.3402 C   0  0  0  0  0  0  0  0  0  0  0  0
    4.2665   -2.0422   -0.0838 C   0  0  0  0  0  0  0  0  0  0  0  0
    5.2125   -1.5621   -1.0418 O   0  0  0  0  0  0  0  0  0  0  0  0
    5.8065   -0.3040   -0.9042 C   0  0  0  0  0  0  0  0  0  0  0  0
    6.4985    0.2803   -1.9696 C   0  0  0  0  0  0  0  0  0  0  0  0
    7.0573    1.5548   -1.8207 C   0  0  0  0  0  0  0  0  0  0  0  0
    6.9261    2.2418   -0.6076 C   0  0  0  0  0  0  0  0  0  0  0  0
    6.2469    1.6508    0.4638 C   0  0  0  0  0  0  0  0  0  0  0  0
    5.7008    0.3717    0.3198 C   0  0  0  0  0  0  0  0  0  0  0  0
    5.0464   -0.2488    1.3876 O   0  0  0  0  0  0  0  0  0  0  0  0
   -6.9964   -3.4873   -2.5206 H   0  0  0  0  0  0  0  0  0  0  0  0
   -5.2023   -3.3048   -2.5103 H   0  0  0  0  0  0  0  0  0  0  0  0
   -6.1279   -3.3805   -0.9437 H   0  0  0  0  0  0  0  0  0  0  0  0
   -4.0016   -2.1598   -0.6876 H   0  0  0  0  0  0  0  0  0  0  0  0
   -2.1590    4.1327    0.7118 H   0  0  0  0  0  0  0  0  0  0  0  0
   -3.6724    4.0144   -0.2082 H   0  0  0  0  0  0  0  0  0  0  0  0
   -5.0517    2.6693   -1.0703 H   0  0  0  0  0  0  0  0  0  0  0  0
   -8.2436    2.4080   -2.9703 H   0  0  0  0  0  0  0  0  0  0  0  0
   -6.5307    2.9701   -2.9909 H   0  0  0  0  0  0  0  0  0  0  0  0
   -7.4562    2.8949   -1.4233 H   0  0  0  0  0  0  0  0  0  0  0  0
    0.6525    0.8469    3.2718 H   0  0  0  0  0  0  0  0  0  0  0  0
    0.7533    1.6968    1.6904 H   0  0  0  0  0  0  0  0  0  0  0  0
    2.9454    0.7414    2.5457 H   0  0  0  0  0  0  0  0  0  0  0  0
    2.4761    0.2637    0.8684 H   0  0  0  0  0  0  0  0  0  0  0  0
    0.9283   -1.6665    3.8530 H   0  0  0  0  0  0  0  0  0  0  0  0
    1.2992   -3.0842    2.8060 H   0  0  0  0  0  0  0  0  0  0  0  0
   -0.9864   -2.0440    2.4180 H   0  0  0  0  0  0  0  0  0  0  0  0
    0.0497   -2.2001    0.9483 H   0  0  0  0  0  0  0  0  0  0  0  0
    5.6015   -2.2214    1.5985 H   0  0  0  0  0  0  0  0  0  0  0  0
    4.1987   -3.1481   -0.1600 H   0  0  0  0  0  0  0  0  0  0  0  0
    3.2700   -1.6175   -0.3286 H   0  0  0  0  0  0  0  0  0  0  0  0
    6.5912   -0.2446   -2.9118 H   0  0  0  0  0  0  0  0  0  0  0  0
    7.5869    2.0124   -2.6462 H   0  0  0  0  0  0  0  0  0  0  0  0
    7.3553    3.2292   -0.4965 H   0  0  0  0  0  0  0  0  0  0  0  0
    6.1555    2.1786    1.4045 H   0  0  0  0  0  0  0  0  0  0  0  0
  1  2  1  0
  2  3  1  0
  3  4  2  0
  4  5  1  0
  5  6  2  0
  6  7  1  0
  7  8  2  0
  8  9  1  0
  9 10  1  0
  9 11  2  0
 11  5  1  0
 11 12  1  0
 12 13  2  0
 13  3  1  0
 13 14  1  0
 14 15  1  0
  7 16  1  0
 16 17  1  0
 17 18  1  0
 18 19  1  0
 19 20  1  0
 20 21  1  0
 21 16  1  0
 19 22  1  0
 22 23  2  0
 22 24  1  0
 24 25  1  0
 25 26  1  0
 26 27  1  0
 27 28  2  0
 28 29  1  0
 29 30  2  0
 30 31  1  0
 31 32  2  0
 32 27  1  0
 32 33  1  0
 33 24  1  0
  1 34  1  0
  1 35  1  0
  1 36  1  0
  4 37  1  0
 10 38  1  0
 10 39  1  0
 12 40  1  0
 15 41  1  0
 15 42  1  0
 15 43  1  0
 17 44  1  0
 17 45  1  0
 18 46  1  0
 18 47  1  0
 20 48  1  0
 20 49  1  0
 21 50  1  0
 21 51  1  0
 24 52  1  0
 25 53  1  0
 25 54  1  0
 28 55  1  0
 29 56  1  0
 30 57  1  0
 31 58  1  0
M  END
> <ID>
HT0715

> <Class>
1.0

> <Clusters>
223

> <Fold>
2

$$$$