
     RDKit          3D

 38 39  0  0  0  0  0  0  0  0999 V2000
    1.0189    1.4409    2.4274 C   0  0  0  0  0  0  0  0  0  0  0  0
   -0.3407    1.1204    1.8820 C   0  0  0  0  0  0  0  0  0  0  0  0
   -0.5797    0.1764    0.9467 C   0  0  0  0  0  0  0  0  0  0  0  0
    0.5285   -0.5924    0.3082 C   0  0  0  0  0  0  0  0  0  0  0  0
    0.4399   -1.9369    0.2592 C   0  0  0  0  0  0  0  0  0  0  0  0
    1.3881   -2.8136   -0.5039 C   0  0  0  0  0  0  0  0  0  0  0  0
    1.6290    0.1437   -0.3646 C   0  0  0  0  0  0  0  0  0  0  0  0
    2.9701   -0.0815   -0.0079 C   0  0  0  0  0  0  0  0  0  0  0  0
    3.9959    0.6383   -0.6273 C   0  0  0  0  0  0  0  0  0  0  0  0
    3.6950    1.5984   -1.5982 C   0  0  0  0  0  0  0  0  0  0  0  0
    4.7273    2.3076   -2.2077 O   0  0  0  0  0  0  0  0  0  0  0  0
    2.3593    1.8416   -1.9443 C   0  0  0  0  0  0  0  0  0  0  0  0
    1.3315    1.1236   -1.3259 C   0  0  0  0  0  0  0  0  0  0  0  0
   -1.9845   -0.1185    0.5412 C   0  0  0  0  0  0  0  0  0  0  0  0
   -2.2894   -0.3891   -0.8060 C   0  0  0  0  0  0  0  0  0  0  0  0
   -3.6009   -0.6783   -1.1935 C   0  0  0  0  0  0  0  0  0  0  0  0
   -4.6253   -0.7093   -0.2435 C   0  0  0  0  0  0  0  0  0  0  0  0
   -5.9274   -0.9988   -0.6447 O   0  0  0  0  0  0  0  0  0  0  0  0
   -4.3325   -0.4520    1.1014 C   0  0  0  0  0  0  0  0  0  0  0  0
   -3.0222   -0.1619    1.4930 C   0  0  0  0  0  0  0  0  0  0  0  0
    0.9192    2.1359    3.2872 H   0  0  0  0  0  0  0  0  0  0  0  0
    1.6367    1.9418    1.6546 H   0  0  0  0  0  0  0  0  0  0  0  0
    1.5213    0.5153    2.7796 H   0  0  0  0  0  0  0  0  0  0  0  0
   -1.1694    1.6769    2.3033 H   0  0  0  0  0  0  0  0  0  0  0  0
   -0.3986   -2.4285    0.7399 H   0  0  0  0  0  0  0  0  0  0  0  0
    0.9938   -3.8510   -0.5294 H   0  0  0  0  0  0  0  0  0  0  0  0
    2.3802   -2.8360   -0.0103 H   0  0  0  0  0  0  0  0  0  0  0  0
    1.4915   -2.4519   -1.5488 H   0  0  0  0  0  0  0  0  0  0  0  0
    3.2205   -0.7928    0.7685 H   0  0  0  0  0  0  0  0  0  0  0  0
    5.0252    0.4567   -0.3454 H   0  0  0  0  0  0  0  0  0  0  0  0
    4.5419    3.0109   -2.9133 H   0  0  0  0  0  0  0  0  0  0  0  0
    2.1164    2.5885   -2.6893 H   0  0  0  0  0  0  0  0  0  0  0  0
    0.3049    1.3300   -1.6002 H   0  0  0  0  0  0  0  0  0  0  0  0
   -1.5145   -0.3707   -1.5616 H   0  0  0  0  0  0  0  0  0  0  0  0
   -3.8212   -0.8795   -2.2342 H   0  0  0  0  0  0  0  0  0  0  0  0
   -6.6917   -1.0297    0.0199 H   0  0  0  0  0  0  0  0  0  0  0  0
   -5.1184   -0.4825    1.8454 H   0  0  0  0  0  0  0  0  0  0  0  0
   -2.8185    0.0080    2.5426 H   0  0  0  0  0  0  0  0  0  0  0  0
  1  2  1  0
  2  3  2  3
  3  4  1  0
  4  5  2  3
  5  6  1  0
  4  7  1  0
  7  8  2  0
  8  9  1  0
  9 10  2  0
 10 11  1  0
 10 12  1  0
 12 13  2  0
 13  7  1  0
  3 14  1  0
 14 15  2  0
 15 16  1  0
 16 17  2  0
 17 18  1  0
 17 19  1  0
 19 20  2  0
 20 14  1  0
  1 21  1  0
  1 22  1  0
  1 23  1  0
  2 24  1  0
  5 25  1  0
  6 26  1  0
  6 27  1  0
  6 28  1  0
  8 29  1  0
  9 30  1  0
 11 31  1  0
 12 32  1  0
 13 33  1  0
 15 34  1  0
 16 35  1  0
 18 36  1  0
 19 37  1  0
 20 38  1  0
M  END
> <ID>
HT0653

> <Class>
1.0

> <Clusters>
76

> <Fold>
2

$$$$