
     RDKit          3D

 55 57  0  0  0  0  0  0  0  0999 V2000
   -4.9929    2.5435   -2.9055 C   0  0  0  0  0  0  0  0  0  0  0  0
   -5.6008    1.5132   -2.1332 O   0  0  0  0  0  0  0  0  0  0  0  0
   -4.9225    0.7073   -1.2046 C   0  0  0  0  0  0  0  0  0  0  0  0
   -3.5493    0.8596   -0.9480 C   0  0  0  0  0  0  0  0  0  0  0  0
   -2.9050    0.0375   -0.0208 C   0  0  0  0  0  0  0  0  0  0  0  0
   -1.5765    0.1990    0.2011 N   0  0  0  0  0  0  0  0  0  0  0  0
   -0.9038   -0.5796    1.0871 C   0  0  0  0  0  0  0  0  0  0  0  0
   -1.5775   -1.5378    1.7764 N   0  0  0  0  0  0  0  0  0  0  0  0
   -2.9094   -1.7534    1.6072 C   0  0  0  0  0  0  0  0  0  0  0  0
   -3.5257   -2.7899    2.3829 N   0  0  0  0  0  0  0  0  0  0  0  0
   -3.6255   -0.9556    0.6796 C   0  0  0  0  0  0  0  0  0  0  0  0
   -5.0030   -1.1048    0.4192 C   0  0  0  0  0  0  0  0  0  0  0  0
   -5.6509   -0.2770   -0.5205 C   0  0  0  0  0  0  0  0  0  0  0  0
   -7.0210   -0.4019   -0.8043 O   0  0  0  0  0  0  0  0  0  0  0  0
   -7.8876   -1.3676   -0.2166 C   0  0  0  0  0  0  0  0  0  0  0  0
    0.5105   -0.3901    1.2990 N   0  0  0  0  0  0  0  0  0  0  0  0
    1.1873   -1.1494    2.3551 C   0  0  0  0  0  0  0  0  0  0  0  0
    1.2613    0.5953    0.5046 C   0  0  0  0  0  0  0  0  0  0  0  0
    1.4846    0.1063   -0.9357 C   0  0  0  0  0  0  0  0  0  0  0  0
    2.3117   -1.1857   -1.0141 C   0  0  0  0  0  0  0  0  0  0  0  0
    3.6237   -1.0202   -0.3905 N   0  0  0  0  0  0  0  0  0  0  0  0
    4.6438   -0.1778   -0.9444 C   0  0  0  0  0  0  0  0  0  0  0  0
    4.4962    0.3318   -2.0882 O   0  0  0  0  0  0  0  0  0  0  0  0
    5.8601    0.1579   -0.1291 C   0  0  0  0  0  0  0  0  0  0  0  0
    5.5951    1.3500    0.7768 C   0  0  0  0  0  0  0  0  0  0  0  0
    6.9250    2.0335    0.8189 C   0  0  0  0  0  0  0  0  0  0  0  0
    7.5534    1.6370   -0.5016 C   0  0  0  0  0  0  0  0  0  0  0  0
    6.9541    0.4488   -0.9714 O   0  0  0  0  0  0  0  0  0  0  0  0
   -4.1957    2.1172   -3.5498 H   0  0  0  0  0  0  0  0  0  0  0  0
   -4.5693    3.3229   -2.2369 H   0  0  0  0  0  0  0  0  0  0  0  0
   -5.7616    3.0124   -3.5539 H   0  0  0  0  0  0  0  0  0  0  0  0
   -2.9712    1.6130   -1.4678 H   0  0  0  0  0  0  0  0  0  0  0  0
   -4.5410   -3.0153    2.3506 H   0  0  0  0  0  0  0  0  0  0  0  0
   -2.9419   -3.3465    3.0464 H   0  0  0  0  0  0  0  0  0  0  0  0
   -5.5823   -1.8556    0.9272 H   0  0  0  0  0  0  0  0  0  0  0  0
   -8.9097   -1.2330   -0.6263 H   0  0  0  0  0  0  0  0  0  0  0  0
   -7.5383   -2.3934   -0.4628 H   0  0  0  0  0  0  0  0  0  0  0  0
   -7.9260   -1.2285    0.8852 H   0  0  0  0  0  0  0  0  0  0  0  0
    2.2686   -0.9036    2.4100 H   0  0  0  0  0  0  0  0  0  0  0  0
    0.7256   -0.9161    3.3376 H   0  0  0  0  0  0  0  0  0  0  0  0
    1.0917   -2.2376    2.1554 H   0  0  0  0  0  0  0  0  0  0  0  0
    0.7033    1.5566    0.4831 H   0  0  0  0  0  0  0  0  0  0  0  0
    2.2429    0.8228    0.9729 H   0  0  0  0  0  0  0  0  0  0  0  0
    1.9951    0.9088   -1.5084 H   0  0  0  0  0  0  0  0  0  0  0  0
    0.5054   -0.0682   -1.4299 H   0  0  0  0  0  0  0  0  0  0  0  0
    2.4406   -1.4817   -2.0769 H   0  0  0  0  0  0  0  0  0  0  0  0
    1.7616   -2.0075   -0.5063 H   0  0  0  0  0  0  0  0  0  0  0  0
    3.8216   -1.5400    0.4927 H   0  0  0  0  0  0  0  0  0  0  0  0
    6.1332   -0.7216    0.4959 H   0  0  0  0  0  0  0  0  0  0  0  0
    4.8389    2.0384    0.3337 H   0  0  0  0  0  0  0  0  0  0  0  0
    5.2635    1.0324    1.7901 H   0  0  0  0  0  0  0  0  0  0  0  0
    7.5306    1.6359    1.6638 H   0  0  0  0  0  0  0  0  0  0  0  0
    6.8215    3.1363    0.9143 H   0  0  0  0  0  0  0  0  0  0  0  0
    8.6461    1.4820   -0.3788 H   0  0  0  0  0  0  0  0  0  0  0  0
    7.3914    2.4403   -1.2529 H   0  0  0  0  0  0  0  0  0  0  0  0
  1  2  1  0
  2  3  1  0
  3  4  2  0
  4  5  1  0
  5  6  2  0
  6  7  1  0
  7  8  2  0
  8  9  1  0
  9 10  1  0
  9 11  2  0
 11  5  1  0
 11 12  1  0
 12 13  2  0
 13  3  1  0
 13 14  1  0
 14 15  1  0
  7 16  1  0
 16 17  1  0
 16 18  1  0
 18 19  1  0
 19 20  1  0
 20 21  1  0
 21 22  1  0
 22 23  2  0
 22 24  1  0
 24 25  1  0
 25 26  1  0
 26 27  1  0
 27 28  1  0
 28 24  1  0
  1 29  1  0
  1 30  1  0
  1 31  1  0
  4 32  1  0
 10 33  1  0
 10 34  1  0
 12 35  1  0
 15 36  1  0
 15 37  1  0
 15 38  1  0
 17 39  1  0
 17 40  1  0
 17 41  1  0
 18 42  1  0
 18 43  1  0
 19 44  1  0
 19 45  1  0
 20 46  1  0
 20 47  1  0
 21 48  1  0
 24 49  1  0
 25 50  1  0
 25 51  1  0
 26 52  1  0
 26 53  1  0
 27 54  1  0
 27 55  1  0
M  END
> <ID>
HT0097

> <Class>
1.0

> <Clusters>
223

> <Fold>
2

$$$$