
     RDKit          3D

 29 29  0  0  0  0  0  0  0  0999 V2000
    4.0351   -1.4556   -2.1787 C   0  0  0  0  0  0  0  0  0  0  0  0
    3.0133   -1.0399   -1.1706 C   0  0  0  0  0  0  0  0  0  0  0  0
    3.1179   -1.4509    0.0168 O   0  0  0  0  0  0  0  0  0  0  0  0
    1.9284   -0.1799   -1.5457 N   0  0  0  0  0  0  0  0  0  0  0  0
    0.9546    0.2633   -0.5930 C   0  0  0  0  0  0  0  0  0  0  0  0
   -0.0808   -0.5978   -0.1921 C   0  0  0  0  0  0  0  0  0  0  0  0
   -0.1989   -2.5694   -0.9937 I   0  0  0  0  0  0  0  0  0  0  0  0
   -1.0373   -0.1581    0.7386 C   0  0  0  0  0  0  0  0  0  0  0  0
   -2.0911   -1.0351    1.1540 N   0  0  0  0  0  0  0  0  0  0  0  0
   -3.2380   -1.2814    0.3305 C   0  0  0  0  0  0  0  0  0  0  0  0
   -3.3390   -0.7359   -0.8020 O   0  0  0  0  0  0  0  0  0  0  0  0
   -4.3421   -2.1528    0.8322 C   0  0  0  0  0  0  0  0  0  0  0  0
   -0.9519    1.1357    1.2822 C   0  0  0  0  0  0  0  0  0  0  0  0
   -2.3805    1.7237    2.7581 I   0  0  0  0  0  0  0  0  0  0  0  0
    0.0775    2.0091    0.8690 C   0  0  0  0  0  0  0  0  0  0  0  0
    0.1641    3.3723    1.4251 C   0  0  0  0  0  0  0  0  0  0  0  0
   -0.8115    4.1628    1.3192 O   0  0  0  0  0  0  0  0  0  0  0  0
    1.3253    3.7902    2.0681 O   0  0  0  0  0  0  0  0  0  0  0  0
    1.0273    1.5693   -0.0777 C   0  0  0  0  0  0  0  0  0  0  0  0
    2.5693    2.8667   -0.7869 I   0  0  0  0  0  0  0  0  0  0  0  0
    5.0386   -1.1090   -1.8548 H   0  0  0  0  0  0  0  0  0  0  0  0
    3.8101   -1.0204   -3.1748 H   0  0  0  0  0  0  0  0  0  0  0  0
    4.0414   -2.5622   -2.2657 H   0  0  0  0  0  0  0  0  0  0  0  0
    1.9142    0.2431   -2.5008 H   0  0  0  0  0  0  0  0  0  0  0  0
   -2.0838   -1.3928    2.1357 H   0  0  0  0  0  0  0  0  0  0  0  0
   -5.0197   -2.4403    0.0003 H   0  0  0  0  0  0  0  0  0  0  0  0
   -4.9236   -1.6046    1.6023 H   0  0  0  0  0  0  0  0  0  0  0  0
   -3.9174   -3.0747    1.2815 H   0  0  0  0  0  0  0  0  0  0  0  0
    1.3988    4.7245    2.4528 H   0  0  0  0  0  0  0  0  0  0  0  0
  1  2  1  0
  2  3  2  0
  2  4  1  0
  4  5  1  0
  5  6  2  0
  6  7  1  0
  6  8  1  0
  8  9  1  0
  9 10  1  0
 10 11  2  0
 10 12  1  0
  8 13  2  0
 13 14  1  0
 13 15  1  0
 15 16  1  0
 16 17  2  0
 16 18  1  0
 15 19  2  0
 19  5  1  0
 19 20  1  0
  1 21  1  0
  1 22  1  0
  1 23  1  0
  4 24  1  0
  9 25  1  0
 12 26  1  0
 12 27  1  0
 12 28  1  0
 18 29  1  0
M  END
> <ID>
HT0635

> <Class>
1.0

> <Clusters>
73

> <Fold>
2

$$$$