
     RDKit          3D

 30 32  0  0  0  0  0  0  0  0999 V2000
    0.3108    0.3824   -2.8784 F   0  0  0  0  0  0  0  0  0  0  0  0
   -0.1063    1.5066   -2.1861 C   0  0  0  0  0  0  0  0  0  0  0  0
   -1.3554    1.8783   -2.6527 F   0  0  0  0  0  0  0  0  0  0  0  0
    0.7828    2.5356   -2.4481 F   0  0  0  0  0  0  0  0  0  0  0  0
   -0.1730    1.2428   -0.6668 C   0  0  1  0  0  0  0  0  0  0  0  0
   -0.4353    2.4958   -0.0195 O   0  0  0  0  0  0  0  0  0  0  0  0
   -1.6236    2.8165    0.6340 C   0  0  0  0  0  0  0  0  0  0  0  0
   -1.7869    3.9736    1.1016 O   0  0  0  0  0  0  0  0  0  0  0  0
   -2.6448    1.8377    0.7790 N   0  0  0  0  0  0  0  0  0  0  0  0
   -2.4160    0.5014    0.3310 C   0  0  0  0  0  0  0  0  0  0  0  0
   -3.3810   -0.4853    0.5816 C   0  0  0  0  0  0  0  0  0  0  0  0
   -3.1678   -1.8021    0.1738 C   0  0  0  0  0  0  0  0  0  0  0  0
   -1.9877   -2.1461   -0.4863 C   0  0  0  0  0  0  0  0  0  0  0  0
   -1.7159   -3.8046   -0.9891 Cl  0  0  0  0  0  0  0  0  0  0  0  0
   -1.0220   -1.1699   -0.7463 C   0  0  0  0  0  0  0  0  0  0  0  0
   -1.2218    0.1699   -0.3465 C   0  0  0  0  0  0  0  0  0  0  0  0
    1.1420    0.7825   -0.1869 C   0  0  0  0  0  0  0  0  0  0  0  0
    2.2138    0.3936    0.2044 C   0  0  0  0  0  0  0  0  0  0  0  0
    3.5146   -0.0922    0.6788 C   0  0  0  0  0  0  0  0  0  0  0  0
    3.4585   -1.4531    1.3519 C   0  0  0  0  0  0  0  0  0  0  0  0
    4.0205   -1.3230   -0.0545 C   0  0  0  0  0  0  0  0  0  0  0  0
   -3.5377    2.0917    1.2595 H   0  0  0  0  0  0  0  0  0  0  0  0
   -4.2977   -0.2330    1.0998 H   0  0  0  0  0  0  0  0  0  0  0  0
   -3.9187   -2.5554    0.3760 H   0  0  0  0  0  0  0  0  0  0  0  0
   -0.1106   -1.4612   -1.2523 H   0  0  0  0  0  0  0  0  0  0  0  0
    4.2845    0.6153    1.0522 H   0  0  0  0  0  0  0  0  0  0  0  0
    2.4606   -1.9424    1.3932 H   0  0  0  0  0  0  0  0  0  0  0  0
    4.2329   -1.6138    2.1314 H   0  0  0  0  0  0  0  0  0  0  0  0
    3.3546   -1.7352   -0.8440 H   0  0  0  0  0  0  0  0  0  0  0  0
    5.1266   -1.4067   -0.1051 H   0  0  0  0  0  0  0  0  0  0  0  0
  1  2  1  0
  2  3  1  0
  2  4  1  0
  5  2  1  0
  5  6  1  0
  6  7  1  0
  7  8  2  0
  7  9  1  0
  9 10  1  0
 10 11  2  0
 11 12  1  0
 12 13  2  0
 13 14  1  0
 13 15  1  0
 15 16  2  0
 16  5  1  0
 16 10  1  0
  5 17  1  1
 17 18  3  0
 18 19  1  0
 19 20  1  0
 20 21  1  0
 21 19  1  0
  9 22  1  0
 11 23  1  0
 12 24  1  0
 15 25  1  0
 19 26  1  0
 20 27  1  0
 20 28  1  0
 21 29  1  0
 21 30  1  0
M  END
> <ID>
HT0746

> <Class>
1.0

> <Clusters>
185

> <Fold>
2

$$$$