
     RDKit          3D

 55 58  0  0  0  0  0  0  0  0999 V2000
   -8.0284   -2.0180   -0.4538 C   0  0  0  0  0  0  0  0  0  0  0  0
   -6.6850   -1.4168   -0.1258 C   0  0  0  0  0  0  0  0  0  0  0  0
   -5.5410   -2.1556   -0.4634 C   0  0  0  0  0  0  0  0  0  0  0  0
   -4.2655   -1.6613   -0.1914 C   0  0  0  0  0  0  0  0  0  0  0  0
   -4.1017   -0.4098    0.4157 C   0  0  0  0  0  0  0  0  0  0  0  0
   -5.2411    0.3294    0.7739 C   0  0  0  0  0  0  0  0  0  0  0  0
   -6.5340   -0.1565    0.5063 C   0  0  0  0  0  0  0  0  0  0  0  0
   -7.7229    0.6765    0.9094 C   0  0  0  0  0  0  0  0  0  0  0  0
   -2.7777    0.0806    0.6947 N   0  0  0  0  0  0  0  0  0  0  0  0
   -1.7564   -0.7116    0.9982 N   0  0  0  0  0  0  0  0  0  0  0  0
   -0.6675    0.0625    1.1930 C   0  0  0  0  0  0  0  0  0  0  0  0
    0.6611   -0.4785    1.6131 C   0  0  0  0  0  0  0  0  0  0  0  0
   -1.0088    1.3873    0.9666 C   0  0  0  0  0  0  0  0  0  0  0  0
   -0.1999    2.5604    1.1358 N   0  0  0  0  0  0  0  0  0  0  0  0
    0.9572    2.7383    0.6216 N   0  0  0  0  0  0  0  0  0  0  0  0
    1.5857    1.8709   -0.3365 C   0  0  0  0  0  0  0  0  0  0  0  0
    0.8772    1.3967   -1.4524 C   0  0  0  0  0  0  0  0  0  0  0  0
    1.5073    0.5810   -2.3911 C   0  0  0  0  0  0  0  0  0  0  0  0
    2.8488    0.2349   -2.2299 C   0  0  0  0  0  0  0  0  0  0  0  0
    3.5813    0.7130   -1.1314 C   0  0  0  0  0  0  0  0  0  0  0  0
    2.9494    1.5662   -0.1949 C   0  0  0  0  0  0  0  0  0  0  0  0
    3.6500    2.1295    0.8753 O   0  0  0  0  0  0  0  0  0  0  0  0
    4.9864    0.2811   -0.9686 C   0  0  0  0  0  0  0  0  0  0  0  0
    5.9210    0.5217   -1.9858 C   0  0  0  0  0  0  0  0  0  0  0  0
    7.2405    0.0900   -1.8433 C   0  0  0  0  0  0  0  0  0  0  0  0
    7.6391   -0.5880   -0.6884 C   0  0  0  0  0  0  0  0  0  0  0  0
    6.7166   -0.8421    0.3427 C   0  0  0  0  0  0  0  0  0  0  0  0
    5.3853   -0.4143    0.1850 C   0  0  0  0  0  0  0  0  0  0  0  0
    7.1196   -1.5713    1.5701 C   0  0  0  0  0  0  0  0  0  0  0  0
    6.2455   -2.1513    2.2679 O   0  0  0  0  0  0  0  0  0  0  0  0
    8.4480   -1.6240    1.9907 O   0  0  0  0  0  0  0  0  0  0  0  0
   -2.3521    1.3624    0.6785 C   0  0  0  0  0  0  0  0  0  0  0  0
   -3.1450    2.4656    0.3729 O   0  0  0  0  0  0  0  0  0  0  0  0
   -8.1354   -2.9910    0.0705 H   0  0  0  0  0  0  0  0  0  0  0  0
   -8.8821   -1.3779   -0.1589 H   0  0  0  0  0  0  0  0  0  0  0  0
   -8.0971   -2.1930   -1.5482 H   0  0  0  0  0  0  0  0  0  0  0  0
   -5.6381   -3.1226   -0.9423 H   0  0  0  0  0  0  0  0  0  0  0  0
   -3.4011   -2.2517   -0.4681 H   0  0  0  0  0  0  0  0  0  0  0  0
   -5.1249    1.2734    1.2890 H   0  0  0  0  0  0  0  0  0  0  0  0
   -8.3249    0.9324    0.0124 H   0  0  0  0  0  0  0  0  0  0  0  0
   -8.3488    0.1139    1.6336 H   0  0  0  0  0  0  0  0  0  0  0  0
   -7.4156    1.6279    1.3935 H   0  0  0  0  0  0  0  0  0  0  0  0
    0.5142   -1.3429    2.2937 H   0  0  0  0  0  0  0  0  0  0  0  0
    1.2247   -0.8181    0.7197 H   0  0  0  0  0  0  0  0  0  0  0  0
    1.2459    0.2966    2.1508 H   0  0  0  0  0  0  0  0  0  0  0  0
   -0.1581    1.6723   -1.6052 H   0  0  0  0  0  0  0  0  0  0  0  0
    0.9535    0.2137   -3.2455 H   0  0  0  0  0  0  0  0  0  0  0  0
    3.3153   -0.4178   -2.9580 H   0  0  0  0  0  0  0  0  0  0  0  0
    4.6501    2.0321    0.9929 H   0  0  0  0  0  0  0  0  0  0  0  0
    5.6279    1.0460   -2.8873 H   0  0  0  0  0  0  0  0  0  0  0  0
    7.9561    0.2750   -2.6342 H   0  0  0  0  0  0  0  0  0  0  0  0
    8.6614   -0.9339   -0.6237 H   0  0  0  0  0  0  0  0  0  0  0  0
    4.6553   -0.6147    0.9609 H   0  0  0  0  0  0  0  0  0  0  0  0
    9.1847   -1.0981    1.5390 H   0  0  0  0  0  0  0  0  0  0  0  0
   -2.7562    3.4007    0.3605 H   0  0  0  0  0  0  0  0  0  0  0  0
  1  2  1  0
  2  3  2  0
  3  4  1  0
  4  5  2  0
  5  6  1  0
  6  7  2  0
  7  2  1  0
  7  8  1  0
  5  9  1  0
  9 10  1  0
 10 11  2  0
 11 12  1  0
 11 13  1  0
 13 14  1  0
 14 15  2  3
 15 16  1  0
 16 17  2  0
 17 18  1  0
 18 19  2  0
 19 20  1  0
 20 21  2  0
 21 16  1  0
 21 22  1  0
 20 23  1  0
 23 24  2  0
 24 25  1  0
 25 26  2  0
 26 27  1  0
 27 28  2  0
 28 23  1  0
 27 29  1  0
 29 30  2  0
 29 31  1  0
 13 32  2  0
 32  9  1  0
 32 33  1  0
  1 34  1  0
  1 35  1  0
  1 36  1  0
  3 37  1  0
  4 38  1  0
  6 39  1  0
  8 40  1  0
  8 41  1  0
  8 42  1  0
 12 43  1  0
 12 44  1  0
 12 45  1  0
 17 46  1  0
 18 47  1  0
 19 48  1  0
 22 49  1  0
 24 50  1  0
 25 51  1  0
 26 52  1  0
 28 53  1  0
 31 54  1  0
 33 55  1  0
M  END
> <ID>
HT0749

> <Class>
1.0

> <Clusters>
153

> <Fold>
2

$$$$