
     RDKit          3D

 46 49  0  0  0  0  0  0  0  0999 V2000
   -2.7622   -1.0681    1.3427 C   0  0  0  0  0  0  0  0  0  0  0  0
   -2.5289   -0.6970   -0.1486 C   0  0  2  0  0  0  0  0  0  0  0  0
   -1.7680   -1.8125   -0.8863 C   0  0  0  0  0  0  0  0  0  0  0  0
   -0.3144   -1.9255   -0.3590 C   0  0  0  0  0  0  0  0  0  0  0  0
    0.4644   -0.5619   -0.3139 C   0  0  1  0  0  0  0  0  0  0  0  0
   -0.3903    0.6056    0.3104 C   0  0  1  0  0  0  0  0  0  0  0  0
    0.3196    1.9585    0.1206 C   0  0  0  0  0  0  0  0  0  0  0  0
    1.7162    1.8986    0.6703 C   0  0  0  0  0  0  0  0  0  0  0  0
    2.1717    2.8454    1.4991 C   0  0  0  0  0  0  0  0  0  0  0  0
    2.5491    0.7381    0.2819 C   0  0  0  0  0  0  0  0  0  0  0  0
    3.8275    0.9232   -0.0900 C   0  0  0  0  0  0  0  0  0  0  0  0
    4.6311   -0.1939   -0.5850 C   0  0  0  0  0  0  0  0  0  0  0  0
    5.8420   -0.0215   -0.8835 O   0  0  0  0  0  0  0  0  0  0  0  0
    4.0070   -1.5022   -0.7674 C   0  0  0  0  0  0  0  0  0  0  0  0
    2.7401   -1.7053   -0.4017 C   0  0  0  0  0  0  0  0  0  0  0  0
    1.9019   -0.6563    0.3324 C   0  0  2  0  0  0  0  0  0  0  0  0
    1.8545   -1.0868    1.8169 C   0  0  0  0  0  0  0  0  0  0  0  0
   -1.7654    0.6118   -0.3812 C   0  0  2  0  0  0  0  0  0  0  0  0
   -2.7772    1.7238   -0.0942 C   0  0  0  0  0  0  0  0  0  0  0  0
   -4.0911    1.1623   -0.6651 C   0  0  0  0  0  0  0  0  0  0  0  0
   -3.8561   -0.3166   -0.7159 C   0  0  0  0  0  0  0  0  0  0  0  0
   -4.6828   -1.1188   -1.1223 O   0  0  0  0  0  0  0  0  0  0  0  0
   -3.2777   -0.2507    1.8898 H   0  0  0  0  0  0  0  0  0  0  0  0
   -1.8243   -1.2914    1.8860 H   0  0  0  0  0  0  0  0  0  0  0  0
   -3.4032   -1.9736    1.4081 H   0  0  0  0  0  0  0  0  0  0  0  0
   -1.7445   -1.6032   -1.9791 H   0  0  0  0  0  0  0  0  0  0  0  0
   -2.2882   -2.7855   -0.7483 H   0  0  0  0  0  0  0  0  0  0  0  0
   -0.3340   -2.4011    0.6397 H   0  0  0  0  0  0  0  0  0  0  0  0
    0.2086   -2.6310   -1.0361 H   0  0  0  0  0  0  0  0  0  0  0  0
    0.6306   -0.2913   -1.3832 H   0  0  0  0  0  0  0  0  0  0  0  0
   -0.5319    0.4572    1.3988 H   0  0  0  0  0  0  0  0  0  0  0  0
   -0.2680    2.7629    0.6155 H   0  0  0  0  0  0  0  0  0  0  0  0
    0.3829    2.2011   -0.9628 H   0  0  0  0  0  0  0  0  0  0  0  0
    3.1667    2.7867    1.9218 H   0  0  0  0  0  0  0  0  0  0  0  0
    1.5511    3.6868    1.7804 H   0  0  0  0  0  0  0  0  0  0  0  0
    4.2645    1.9149   -0.0932 H   0  0  0  0  0  0  0  0  0  0  0  0
    4.5776   -2.3125   -1.2045 H   0  0  0  0  0  0  0  0  0  0  0  0
    2.3559   -2.7105   -0.5075 H   0  0  0  0  0  0  0  0  0  0  0  0
    1.4496   -2.1122    1.9363 H   0  0  0  0  0  0  0  0  0  0  0  0
    2.8819   -1.0918    2.2427 H   0  0  0  0  0  0  0  0  0  0  0  0
    1.2505   -0.3915    2.4335 H   0  0  0  0  0  0  0  0  0  0  0  0
   -1.5555    0.7085   -1.4769 H   0  0  0  0  0  0  0  0  0  0  0  0
   -2.4964    2.6728   -0.6005 H   0  0  0  0  0  0  0  0  0  0  0  0
   -2.8658    1.9007    0.9996 H   0  0  0  0  0  0  0  0  0  0  0  0
   -4.2684    1.5482   -1.6920 H   0  0  0  0  0  0  0  0  0  0  0  0
   -4.9512    1.4053   -0.0054 H   0  0  0  0  0  0  0  0  0  0  0  0
  2  1  1  1
  2  3  1  0
  3  4  1  0
  5  4  1  0
  5  6  1  0
  6  7  1  0
  7  8  1  0
  8  9  2  3
  8 10  1  0
 10 11  2  0
 11 12  1  0
 12 13  2  0
 12 14  1  0
 14 15  2  0
 15 16  1  0
 16  5  1  0
 16 10  1  0
 16 17  1  1
  6 18  1  0
 18  2  1  0
 18 19  1  0
 19 20  1  0
 20 21  1  0
 21  2  1  0
 21 22  2  0
  1 23  1  0
  1 24  1  0
  1 25  1  0
  3 26  1  0
  3 27  1  0
  4 28  1  0
  4 29  1  0
  5 30  1  6
  6 31  1  1
  7 32  1  0
  7 33  1  0
  9 34  1  0
  9 35  1  0
 11 36  1  0
 14 37  1  0
 15 38  1  0
 17 39  1  0
 17 40  1  0
 17 41  1  0
 18 42  1  6
 19 43  1  0
 19 44  1  0
 20 45  1  0
 20 46  1  0
M  END
> <ID>
HT0840

> <Class>
1.0

> <Clusters>
69

> <Fold>
2

$$$$