
     RDKit          3D

 42 43  0  0  0  0  0  0  0  0999 V2000
   -2.2845    3.7044   -0.6390 C   0  0  0  0  0  0  0  0  0  0  0  0
   -2.1018    2.4542    0.1515 C   0  0  0  0  0  0  0  0  0  0  0  0
   -3.0879    1.9542    0.7575 O   0  0  0  0  0  0  0  0  0  0  0  0
   -0.8382    1.8538    0.2112 O   0  0  0  0  0  0  0  0  0  0  0  0
   -0.5695    0.6264    0.8907 C   0  0  0  0  0  0  0  0  0  0  0  0
   -0.4909   -0.5531   -0.1043 C   0  0  0  0  0  0  0  0  0  0  0  0
   -0.1415   -1.8850    0.6090 C   0  0  0  0  0  0  0  0  0  0  0  0
    1.2804   -1.9336    1.1920 C   0  0  0  0  0  0  0  0  0  0  0  0
    2.2880   -1.6961    0.1588 N   0  0  0  0  0  0  0  0  0  0  0  0
    2.5864   -2.4817   -0.9084 C   0  0  0  0  0  0  0  0  0  0  0  0
    3.5788   -1.9739   -1.6918 N   0  0  0  0  0  0  0  0  0  0  0  0
    3.8939   -0.8272   -1.0614 C   0  0  0  0  0  0  0  0  0  0  0  0
    4.8349    0.1314   -1.4029 C   0  0  0  0  0  0  0  0  0  0  0  0
    4.9469    1.2251   -0.5917 N   0  0  0  0  0  0  0  0  0  0  0  0
    4.1584    1.3754    0.5230 C   0  0  0  0  0  0  0  0  0  0  0  0
    4.3014    2.5324    1.3431 N   0  0  0  0  0  0  0  0  0  0  0  0
    3.2334    0.4208    0.8476 N   0  0  0  0  0  0  0  0  0  0  0  0
    3.1296   -0.6627    0.0409 C   0  0  0  0  0  0  0  0  0  0  0  0
   -1.8010   -0.7124   -0.8977 C   0  0  0  0  0  0  0  0  0  0  0  0
   -2.8932   -0.9617   -0.0165 O   0  0  0  0  0  0  0  0  0  0  0  0
   -4.2039   -1.1313   -0.4691 C   0  0  0  0  0  0  0  0  0  0  0  0
   -4.4768   -1.0544   -1.6979 O   0  0  0  0  0  0  0  0  0  0  0  0
   -5.2982   -1.3508    0.5188 C   0  0  0  0  0  0  0  0  0  0  0  0
   -2.6361    4.5197    0.0272 H   0  0  0  0  0  0  0  0  0  0  0  0
   -3.0351    3.5332   -1.4386 H   0  0  0  0  0  0  0  0  0  0  0  0
   -1.3234    4.0073   -1.1050 H   0  0  0  0  0  0  0  0  0  0  0  0
    0.4097    0.7462    1.3948 H   0  0  0  0  0  0  0  0  0  0  0  0
   -1.3223    0.4298    1.6853 H   0  0  0  0  0  0  0  0  0  0  0  0
    0.3056   -0.3238   -0.8455 H   0  0  0  0  0  0  0  0  0  0  0  0
   -0.8681   -2.0709    1.4300 H   0  0  0  0  0  0  0  0  0  0  0  0
   -0.2421   -2.7269   -0.1107 H   0  0  0  0  0  0  0  0  0  0  0  0
    1.4534   -2.9362    1.6390 H   0  0  0  0  0  0  0  0  0  0  0  0
    1.3852   -1.1963    2.0149 H   0  0  0  0  0  0  0  0  0  0  0  0
    2.0864   -3.4179   -1.1206 H   0  0  0  0  0  0  0  0  0  0  0  0
    5.4585    0.0252   -2.2805 H   0  0  0  0  0  0  0  0  0  0  0  0
    3.7039    2.6566    2.1904 H   0  0  0  0  0  0  0  0  0  0  0  0
    5.0037    3.2668    1.1031 H   0  0  0  0  0  0  0  0  0  0  0  0
   -1.9990    0.2052   -1.4922 H   0  0  0  0  0  0  0  0  0  0  0  0
   -1.7035   -1.5564   -1.6156 H   0  0  0  0  0  0  0  0  0  0  0  0
   -5.7702   -0.3780    0.7688 H   0  0  0  0  0  0  0  0  0  0  0  0
   -4.8866   -1.8046    1.4447 H   0  0  0  0  0  0  0  0  0  0  0  0
   -6.0647   -2.0333    0.0948 H   0  0  0  0  0  0  0  0  0  0  0  0
  1  2  1  0
  2  3  2  0
  2  4  1  0
  4  5  1  0
  5  6  1  0
  6  7  1  0
  7  8  1  0
  8  9  1  0
  9 10  1  0
 10 11  2  0
 11 12  1  0
 12 13  2  0
 13 14  1  0
 14 15  2  0
 15 16  1  0
 15 17  1  0
 17 18  2  0
 18  9  1  0
 18 12  1  0
  6 19  1  0
 19 20  1  0
 20 21  1  0
 21 22  2  0
 21 23  1  0
  1 24  1  0
  1 25  1  0
  1 26  1  0
  5 27  1  0
  5 28  1  0
  6 29  1  0
  7 30  1  0
  7 31  1  0
  8 32  1  0
  8 33  1  0
 10 34  1  0
 13 35  1  0
 16 36  1  0
 16 37  1  0
 19 38  1  0
 19 39  1  0
 23 40  1  0
 23 41  1  0
 23 42  1  0
M  END
> <ID>
HT0846

> <Class>
1.0

> <Clusters>
6

> <Fold>
2

$$$$