
     RDKit          3D

 35 37  0  0  0  0  0  0  0  0999 V2000
    4.0779   -2.3338   -2.0078 O   0  0  0  0  0  0  0  0  0  0  0  0
    3.6507   -1.4188   -1.2543 C   0  0  0  0  0  0  0  0  0  0  0  0
    4.4977   -0.7465   -0.4160 N   0  0  0  0  0  0  0  0  0  0  0  0
    2.3102   -1.0633   -1.2456 C   0  0  0  0  0  0  0  0  0  0  0  0
    1.2850   -1.5775   -1.9499 N   0  0  0  0  0  0  0  0  0  0  0  0
    1.8788   -0.0805   -0.4256 C   0  0  0  0  0  0  0  0  0  0  0  0
    0.2232   -0.8488   -1.5067 C   0  0  0  0  0  0  0  0  0  0  0  0
    0.5586    0.0844   -0.5747 N   0  0  0  0  0  0  0  0  0  0  0  0
    2.7079    0.5868    0.4125 N   0  0  0  0  0  0  0  0  0  0  0  0
   -0.3199    0.9973    0.1669 C   0  0  1  0  0  0  0  0  0  0  0  0
    4.0341    0.2488    0.4140 C   0  0  0  0  0  0  0  0  0  0  0  0
   -1.2338    1.7949   -0.7667 C   0  0  0  0  0  0  0  0  0  0  0  0
   -1.2555    0.2325    1.0396 C   0  0  0  0  0  0  0  0  0  0  0  0
    4.9343    0.9345    1.2839 N   0  0  0  0  0  0  0  0  0  0  0  0
   -2.6189    1.1349   -0.7158 C   0  0  1  0  0  0  0  0  0  0  0  0
   -2.6828    0.3260    0.5966 C   0  0  1  0  0  0  0  0  0  0  0  0
   -0.8559   -0.3908    2.1567 C   0  0  0  0  0  0  0  0  0  0  0  0
   -3.6215    2.1171   -0.7510 O   0  0  0  0  0  0  0  0  0  0  0  0
   -3.3133   -1.0658    0.3880 C   0  0  0  0  0  0  0  0  0  0  0  0
   -4.6234   -0.9496   -0.0977 O   0  0  0  0  0  0  0  0  0  0  0  0
    5.5125   -0.9968   -0.4055 H   0  0  0  0  0  0  0  0  0  0  0  0
   -0.7857   -1.0096   -1.8598 H   0  0  0  0  0  0  0  0  0  0  0  0
    0.2841    1.7026    0.7813 H   0  0  0  0  0  0  0  0  0  0  0  0
   -0.8418    1.8295   -1.8069 H   0  0  0  0  0  0  0  0  0  0  0  0
   -1.3028    2.8411   -0.3925 H   0  0  0  0  0  0  0  0  0  0  0  0
    4.5846    1.6892    1.9151 H   0  0  0  0  0  0  0  0  0  0  0  0
    5.9495    0.6913    1.3005 H   0  0  0  0  0  0  0  0  0  0  0  0
   -2.7128    0.4673   -1.6047 H   0  0  0  0  0  0  0  0  0  0  0  0
   -3.2563    0.8834    1.3708 H   0  0  0  0  0  0  0  0  0  0  0  0
    0.1920   -0.3936    2.4406 H   0  0  0  0  0  0  0  0  0  0  0  0
   -1.5696   -0.8931    2.8011 H   0  0  0  0  0  0  0  0  0  0  0  0
   -4.4725    1.6469   -0.9497 H   0  0  0  0  0  0  0  0  0  0  0  0
   -2.7140   -1.6499   -0.3429 H   0  0  0  0  0  0  0  0  0  0  0  0
   -3.3197   -1.6362    1.3438 H   0  0  0  0  0  0  0  0  0  0  0  0
   -5.1810   -0.6378    0.6622 H   0  0  0  0  0  0  0  0  0  0  0  0
  1  2  2  0
  2  3  1  0
  2  4  1  0
  4  5  1  0
  6  4  2  0
  5  7  2  0
  8  6  1  0
  6  9  1  0
  7  8  1  0
 10  8  1  0
  9 11  2  0
 10 12  1  0
 13 10  1  0
 14 11  1  0
 11  3  1  0
 12 15  1  0
 16 13  1  0
 13 17  2  3
 15 18  1  0
 15 16  1  0
 16 19  1  0
 19 20  1  0
  3 21  1  0
  7 22  1  0
 10 23  1  1
 12 24  1  0
 12 25  1  0
 14 26  1  0
 14 27  1  0
 15 28  1  6
 16 29  1  1
 17 30  1  0
 17 31  1  0
 18 32  1  0
 19 33  1  0
 19 34  1  0
 20 35  1  0
M  END
> <ID>
HT0764

> <Class>
1.0

> <Clusters>
116

> <Fold>
2

$$$$