
     RDKit          3D

 48 50  0  0  0  0  0  0  0  0999 V2000
   -5.7728   -1.0223    0.0141 C   0  0  0  0  0  0  0  0  0  0  0  0
   -4.5354   -1.8266   -0.3689 C   0  0  0  0  0  0  0  0  0  0  0  0
   -3.4643   -1.5249    0.5057 O   0  0  0  0  0  0  0  0  0  0  0  0
   -2.6179   -0.5482   -0.0644 C   0  0  0  0  0  0  0  0  0  0  0  0
   -1.5643   -0.1408    0.9651 C   0  0  0  0  0  0  0  0  0  0  0  0
   -0.6389    0.8483    0.4040 N   0  0  0  0  0  0  0  0  0  0  0  0
    0.6841    0.6966    0.1259 C   0  0  0  0  0  0  0  0  0  0  0  0
    1.2953    1.8387   -0.2827 N   0  0  0  0  0  0  0  0  0  0  0  0
    0.2933    2.7358   -0.2580 C   0  0  0  0  0  0  0  0  0  0  0  0
    0.3673    4.0937   -0.5589 C   0  0  0  0  0  0  0  0  0  0  0  0
   -0.8016    4.8629   -0.4104 C   0  0  0  0  0  0  0  0  0  0  0  0
   -1.9988    4.2647    0.0431 C   0  0  0  0  0  0  0  0  0  0  0  0
   -2.0399    2.8909    0.3447 C   0  0  0  0  0  0  0  0  0  0  0  0
   -0.8679    2.1517    0.1639 C   0  0  0  0  0  0  0  0  0  0  0  0
    1.4015   -0.5309    0.3122 N   0  0  0  0  0  0  0  0  0  0  0  0
    1.1382   -1.6552   -0.5906 C   0  0  0  0  0  0  0  0  0  0  0  0
    2.2217   -1.7466   -1.6652 C   0  0  0  0  0  0  0  0  0  0  0  0
    3.5109   -2.4123   -1.1597 C   0  0  0  0  0  0  0  0  0  0  0  0
    4.1786   -1.6924   -0.0573 N   0  0  0  0  0  0  0  0  0  0  0  0
    4.7402   -0.3870   -0.4395 C   0  0  0  0  0  0  0  0  0  0  0  0
    3.4446   -1.7084    1.2263 C   0  0  0  0  0  0  0  0  0  0  0  0
    2.4026   -0.5834    1.3856 C   0  0  0  0  0  0  0  0  0  0  0  0
   -6.6274   -1.3224   -0.6281 H   0  0  0  0  0  0  0  0  0  0  0  0
   -5.5870    0.0632   -0.1245 H   0  0  0  0  0  0  0  0  0  0  0  0
   -6.0365   -1.2136    1.0759 H   0  0  0  0  0  0  0  0  0  0  0  0
   -4.7758   -2.9049   -0.2567 H   0  0  0  0  0  0  0  0  0  0  0  0
   -4.2953   -1.6671   -1.4473 H   0  0  0  0  0  0  0  0  0  0  0  0
   -2.1051   -0.9641   -0.9591 H   0  0  0  0  0  0  0  0  0  0  0  0
   -3.1973    0.3510   -0.3682 H   0  0  0  0  0  0  0  0  0  0  0  0
   -2.0601    0.2847    1.8643 H   0  0  0  0  0  0  0  0  0  0  0  0
   -1.0078   -1.0461    1.2896 H   0  0  0  0  0  0  0  0  0  0  0  0
    1.2946    4.5450   -0.8874 H   0  0  0  0  0  0  0  0  0  0  0  0
   -0.7804    5.9214   -0.6344 H   0  0  0  0  0  0  0  0  0  0  0  0
   -2.8882    4.8686    0.1666 H   0  0  0  0  0  0  0  0  0  0  0  0
   -2.9490    2.4361    0.7136 H   0  0  0  0  0  0  0  0  0  0  0  0
    0.1635   -1.5095   -1.1012 H   0  0  0  0  0  0  0  0  0  0  0  0
    1.0545   -2.6036   -0.0180 H   0  0  0  0  0  0  0  0  0  0  0  0
    2.4319   -0.7421   -2.0895 H   0  0  0  0  0  0  0  0  0  0  0  0
    1.8289   -2.3678   -2.4994 H   0  0  0  0  0  0  0  0  0  0  0  0
    4.2167   -2.5041   -2.0140 H   0  0  0  0  0  0  0  0  0  0  0  0
    3.2864   -3.4539   -0.8409 H   0  0  0  0  0  0  0  0  0  0  0  0
    3.9462    0.3343   -0.7228 H   0  0  0  0  0  0  0  0  0  0  0  0
    5.4337   -0.5096   -1.2983 H   0  0  0  0  0  0  0  0  0  0  0  0
    5.3252    0.0357    0.4049 H   0  0  0  0  0  0  0  0  0  0  0  0
    4.1837   -1.6057    2.0498 H   0  0  0  0  0  0  0  0  0  0  0  0
    2.9597   -2.6959    1.3862 H   0  0  0  0  0  0  0  0  0  0  0  0
    1.8743   -0.7245    2.3527 H   0  0  0  0  0  0  0  0  0  0  0  0
    2.9344    0.3904    1.4557 H   0  0  0  0  0  0  0  0  0  0  0  0
  1  2  1  0
  2  3  1  0
  3  4  1  0
  4  5  1  0
  5  6  1  0
  6  7  1  0
  7  8  2  0
  8  9  1  0
  9 10  2  0
 10 11  1  0
 11 12  2  0
 12 13  1  0
 13 14  2  0
 14  6  1  0
 14  9  1  0
  7 15  1  0
 15 16  1  0
 16 17  1  0
 17 18  1  0
 18 19  1  0
 19 20  1  0
 19 21  1  0
 21 22  1  0
 22 15  1  0
  1 23  1  0
  1 24  1  0
  1 25  1  0
  2 26  1  0
  2 27  1  0
  4 28  1  0
  4 29  1  0
  5 30  1  0
  5 31  1  0
 10 32  1  0
 11 33  1  0
 12 34  1  0
 13 35  1  0
 16 36  1  0
 16 37  1  0
 17 38  1  0
 17 39  1  0
 18 40  1  0
 18 41  1  0
 20 42  1  0
 20 43  1  0
 20 44  1  0
 21 45  1  0
 21 46  1  0
 22 47  1  0
 22 48  1  0
M  END
> <ID>
HT0750

> <Class>
1.0

> <Clusters>
205

> <Fold>
2

$$$$