
     RDKit          3D

 37 37  0  0  0  0  0  0  0  0999 V2000
   -3.8171    0.3211   -1.7798 C   0  0  0  0  0  0  0  0  0  0  0  0
   -3.8629   -1.0546   -1.1243 C   0  0  0  0  0  0  0  0  0  0  0  0
   -2.5728   -1.3618   -0.4906 N   0  0  0  0  0  0  0  0  0  0  0  0
   -2.5070   -1.5747    0.9643 C   0  0  0  0  0  0  0  0  0  0  0  0
   -2.8312   -0.2966    1.7367 C   0  0  0  0  0  0  0  0  0  0  0  0
   -1.4473   -1.7137   -1.3227 C   0  0  0  0  0  0  0  0  0  0  0  0
   -1.6383   -2.3776   -2.3782 O   0  0  0  0  0  0  0  0  0  0  0  0
   -0.0680   -1.3204   -0.9639 C   0  0  0  0  0  0  0  0  0  0  0  0
    0.1670   -0.1174   -0.4087 C   0  0  0  0  0  0  0  0  0  0  0  0
    1.5000    0.3788    0.0054 C   0  0  0  0  0  0  0  0  0  0  0  0
    2.3852   -0.4234    0.7388 C   0  0  0  0  0  0  0  0  0  0  0  0
    3.6253    0.0782    1.1482 C   0  0  0  0  0  0  0  0  0  0  0  0
    4.5011   -0.7360    1.8656 O   0  0  0  0  0  0  0  0  0  0  0  0
    3.9875    1.4022    0.8420 C   0  0  0  0  0  0  0  0  0  0  0  0
    5.2318    1.8917    1.2444 O   0  0  0  0  0  0  0  0  0  0  0  0
    3.0896    2.2337    0.1301 C   0  0  0  0  0  0  0  0  0  0  0  0
    1.8479    1.7069   -0.2716 C   0  0  0  0  0  0  0  0  0  0  0  0
    3.4156    3.6036   -0.1913 N   0  0  0  0  0  0  0  0  0  0  0  0
    4.4764    4.1281    0.2055 O   0  0  0  0  0  0  0  0  0  0  0  0
    2.5476    4.3681   -0.9374 O   0  0  0  0  0  0  0  0  0  0  0  0
    1.0118   -2.2028   -1.3446 C   0  0  0  0  0  0  0  0  0  0  0  0
    1.8754   -2.9099   -1.6507 N   0  0  0  0  0  0  0  0  0  0  0  0
   -4.8050    0.5537   -2.2299 H   0  0  0  0  0  0  0  0  0  0  0  0
   -3.0466    0.3416   -2.5793 H   0  0  0  0  0  0  0  0  0  0  0  0
   -3.5761    1.0961   -1.0217 H   0  0  0  0  0  0  0  0  0  0  0  0
   -4.6846   -1.0678   -0.3762 H   0  0  0  0  0  0  0  0  0  0  0  0
   -4.1089   -1.8253   -1.8863 H   0  0  0  0  0  0  0  0  0  0  0  0
   -1.4962   -1.9235    1.2683 H   0  0  0  0  0  0  0  0  0  0  0  0
   -3.2272   -2.3708    1.2519 H   0  0  0  0  0  0  0  0  0  0  0  0
   -3.8729    0.0309    1.5412 H   0  0  0  0  0  0  0  0  0  0  0  0
   -2.1362    0.5194    1.4553 H   0  0  0  0  0  0  0  0  0  0  0  0
   -2.7257   -0.4874    2.8254 H   0  0  0  0  0  0  0  0  0  0  0  0
   -0.6564    0.5805   -0.3215 H   0  0  0  0  0  0  0  0  0  0  0  0
    2.1066   -1.4329    1.0137 H   0  0  0  0  0  0  0  0  0  0  0  0
    4.2660   -1.6933    2.1005 H   0  0  0  0  0  0  0  0  0  0  0  0
    5.8994    1.3261    1.7547 H   0  0  0  0  0  0  0  0  0  0  0  0
    1.1462    2.3291   -0.8134 H   0  0  0  0  0  0  0  0  0  0  0  0
  1  2  1  0
  2  3  1  0
  3  4  1  0
  4  5  1  0
  3  6  1  0
  6  7  2  0
  6  8  1  0
  8  9  2  3
  9 10  1  0
 10 11  2  0
 11 12  1  0
 12 13  1  0
 12 14  2  0
 14 15  1  0
 14 16  1  0
 16 17  2  0
 17 10  1  0
 16 18  1  0
 18 19  2  0
 18 20  1  0
  8 21  1  0
 21 22  3  0
  1 23  1  0
  1 24  1  0
  1 25  1  0
  2 26  1  0
  2 27  1  0
  4 28  1  0
  4 29  1  0
  5 30  1  0
  5 31  1  0
  5 32  1  0
  9 33  1  0
 11 34  1  0
 13 35  1  0
 15 36  1  0
 17 37  1  0
M  CHG  2  18   1  20  -1
M  END
> <ID>
HT0763

> <Class>
1.0

> <Clusters>
77

> <Fold>
2

$$$$