
     RDKit          3D

 43 45  0  0  0  0  0  0  0  0999 V2000
   -2.2764   -1.7197    1.0599 C   0  0  0  0  0  0  0  0  0  0  0  0
   -3.3825   -0.9311    0.4105 C   0  0  0  0  0  0  0  0  0  0  0  0
   -4.6878   -1.0539    0.9156 C   0  0  0  0  0  0  0  0  0  0  0  0
   -5.7556   -0.3983    0.2977 C   0  0  0  0  0  0  0  0  0  0  0  0
   -5.5340    0.3730   -0.8450 C   0  0  0  0  0  0  0  0  0  0  0  0
   -4.2416    0.5026   -1.3740 C   0  0  0  0  0  0  0  0  0  0  0  0
   -4.0140    1.3516   -2.5940 C   0  0  0  0  0  0  0  0  0  0  0  0
   -3.1522   -0.1204   -0.7317 C   0  0  0  0  0  0  0  0  0  0  0  0
   -1.8705    0.0555   -1.2809 O   0  0  0  0  0  0  0  0  0  0  0  0
   -0.7023    0.3191   -0.5544 C   0  0  0  0  0  0  0  0  0  0  0  0
    0.4083   -0.4042   -0.8492 N   0  0  0  0  0  0  0  0  0  0  0  0
    1.5787   -0.2155   -0.1900 C   0  0  0  0  0  0  0  0  0  0  0  0
    2.7112   -1.0360   -0.5103 N   0  0  0  0  0  0  0  0  0  0  0  0
    4.0468   -0.7898   -0.0388 C   0  0  0  0  0  0  0  0  0  0  0  0
    4.5508    0.5178    0.0869 C   0  0  0  0  0  0  0  0  0  0  0  0
    5.8615    0.7303    0.5254 C   0  0  0  0  0  0  0  0  0  0  0  0
    6.6866   -0.3594    0.8286 C   0  0  0  0  0  0  0  0  0  0  0  0
    6.1987   -1.6634    0.6823 C   0  0  0  0  0  0  0  0  0  0  0  0
    4.8884   -1.8765    0.2432 C   0  0  0  0  0  0  0  0  0  0  0  0
    8.0361   -0.1398    1.2787 C   0  0  0  0  0  0  0  0  0  0  0  0
    9.1211    0.0368    1.6405 N   0  0  0  0  0  0  0  0  0  0  0  0
    1.6467    0.7089    0.8023 N   0  0  0  0  0  0  0  0  0  0  0  0
    0.5795    1.4815    1.1319 C   0  0  0  0  0  0  0  0  0  0  0  0
    0.7292    2.4511    2.1735 N   0  0  0  0  0  0  0  0  0  0  0  0
   -0.6375    1.3166    0.4422 C   0  0  0  0  0  0  0  0  0  0  0  0
   -2.1305    2.4805    0.7901 Br  0  0  0  0  0  0  0  0  0  0  0  0
   -7.0866   -0.5288    0.8311 C   0  0  0  0  0  0  0  0  0  0  0  0
   -8.1564   -0.6337    1.2598 N   0  0  0  0  0  0  0  0  0  0  0  0
   -2.6741   -2.4554    1.7910 H   0  0  0  0  0  0  0  0  0  0  0  0
   -1.7095   -2.2838    0.2897 H   0  0  0  0  0  0  0  0  0  0  0  0
   -1.5937   -1.0409    1.6094 H   0  0  0  0  0  0  0  0  0  0  0  0
   -4.8761   -1.6667    1.7900 H   0  0  0  0  0  0  0  0  0  0  0  0
   -6.3690    0.8726   -1.3230 H   0  0  0  0  0  0  0  0  0  0  0  0
   -3.4383    0.7788   -3.3514 H   0  0  0  0  0  0  0  0  0  0  0  0
   -3.4416    2.2603   -2.3126 H   0  0  0  0  0  0  0  0  0  0  0  0
   -4.9727    1.6669   -3.0582 H   0  0  0  0  0  0  0  0  0  0  0  0
    2.5340   -1.9122   -1.0522 H   0  0  0  0  0  0  0  0  0  0  0  0
    3.9433    1.3732   -0.1768 H   0  0  0  0  0  0  0  0  0  0  0  0
    6.2340    1.7434    0.6192 H   0  0  0  0  0  0  0  0  0  0  0  0
    6.8309   -2.5145    0.9054 H   0  0  0  0  0  0  0  0  0  0  0  0
    4.5235   -2.8900    0.1324 H   0  0  0  0  0  0  0  0  0  0  0  0
   -0.0576    3.0553    2.4946 H   0  0  0  0  0  0  0  0  0  0  0  0
    1.6511    2.5581    2.6522 H   0  0  0  0  0  0  0  0  0  0  0  0
  1  2  1  0
  2  3  2  0
  3  4  1  0
  4  5  2  0
  5  6  1  0
  6  7  1  0
  6  8  2  0
  8  2  1  0
  8  9  1  0
  9 10  1  0
 10 11  2  0
 11 12  1  0
 12 13  1  0
 13 14  1  0
 14 15  2  0
 15 16  1  0
 16 17  2  0
 17 18  1  0
 18 19  2  0
 19 14  1  0
 17 20  1  0
 20 21  3  0
 12 22  2  0
 22 23  1  0
 23 24  1  0
 23 25  2  0
 25 10  1  0
 25 26  1  0
  4 27  1  0
 27 28  3  0
  1 29  1  0
  1 30  1  0
  1 31  1  0
  3 32  1  0
  5 33  1  0
  7 34  1  0
  7 35  1  0
  7 36  1  0
 13 37  1  0
 15 38  1  0
 16 39  1  0
 18 40  1  0
 19 41  1  0
 24 42  1  0
 24 43  1  0
M  END
> <ID>
HT0834

> <Class>
1.0

> <Clusters>
212

> <Fold>
2

$$$$