
     RDKit          3D

 27 29  0  0  0  0  0  0  0  0999 V2000
   -5.3873    0.1706    0.8676 F   0  0  0  0  0  0  0  0  0  0  0  0
   -4.1125   -0.1565    0.5417 C   0  0  0  0  0  0  0  0  0  0  0  0
   -3.0828    0.7680    0.7344 C   0  0  0  0  0  0  0  0  0  0  0  0
   -1.7677    0.4328    0.3990 C   0  0  0  0  0  0  0  0  0  0  0  0
   -1.4702   -0.8369   -0.1347 C   0  0  0  0  0  0  0  0  0  0  0  0
   -2.5143   -1.7587   -0.3240 C   0  0  0  0  0  0  0  0  0  0  0  0
   -3.8281   -1.4184    0.0131 C   0  0  0  0  0  0  0  0  0  0  0  0
   -0.0531   -1.2175   -0.5034 C   0  0  0  0  0  0  0  0  0  0  0  0
    0.8866   -1.0695    0.6632 C   0  0  0  0  0  0  0  0  0  0  0  0
    0.8048   -1.7195    1.7391 O   0  0  0  0  0  0  0  0  0  0  0  0
    1.9145   -0.0806    0.3669 C   0  0  0  0  0  0  0  0  0  0  0  0
    2.9680    0.3711    1.1625 C   0  0  0  0  0  0  0  0  0  0  0  0
    3.8304    1.3460    0.6324 C   0  0  0  0  0  0  0  0  0  0  0  0
    3.6256    1.8456   -0.6703 C   0  0  0  0  0  0  0  0  0  0  0  0
    2.5570    1.3737   -1.4517 C   0  0  0  0  0  0  0  0  0  0  0  0
    1.7150    0.4062   -0.9023 C   0  0  0  0  0  0  0  0  0  0  0  0
    0.5491   -0.2463   -1.4833 C   0  0  0  0  0  0  0  0  0  0  0  0
    0.1152   -0.0373   -2.6472 O   0  0  0  0  0  0  0  0  0  0  0  0
   -3.3024    1.7457    1.1439 H   0  0  0  0  0  0  0  0  0  0  0  0
   -0.9817    1.1612    0.5548 H   0  0  0  0  0  0  0  0  0  0  0  0
   -2.3133   -2.7412   -0.7324 H   0  0  0  0  0  0  0  0  0  0  0  0
   -4.6258   -2.1348   -0.1362 H   0  0  0  0  0  0  0  0  0  0  0  0
    0.0111   -2.2504   -0.9097 H   0  0  0  0  0  0  0  0  0  0  0  0
    3.1183   -0.0171    2.1615 H   0  0  0  0  0  0  0  0  0  0  0  0
    4.6558    1.7151    1.2272 H   0  0  0  0  0  0  0  0  0  0  0  0
    4.2945    2.5963   -1.0706 H   0  0  0  0  0  0  0  0  0  0  0  0
    2.3930    1.7523   -2.4522 H   0  0  0  0  0  0  0  0  0  0  0  0
  1  2  1  0
  2  3  2  0
  3  4  1  0
  4  5  2  0
  5  6  1  0
  6  7  2  0
  7  2  1  0
  5  8  1  0
  8  9  1  0
  9 10  2  0
  9 11  1  0
 11 12  2  0
 12 13  1  0
 13 14  2  0
 14 15  1  0
 15 16  2  0
 16 11  1  0
 16 17  1  0
 17  8  1  0
 17 18  2  0
  3 19  1  0
  4 20  1  0
  6 21  1  0
  7 22  1  0
  8 23  1  0
 12 24  1  0
 13 25  1  0
 14 26  1  0
 15 27  1  0
M  END
> <ID>
HT0896

> <Class>
1.0

> <Clusters>
106

> <Fold>
2

$$$$