
     RDKit          3D

 50 52  0  0  0  0  0  0  0  0999 V2000
    4.3983    1.2931   -1.1184 C   0  0  0  0  0  0  0  0  0  0  0  0
    3.3273    1.6968   -0.1011 C   0  0  0  0  0  0  0  0  0  0  0  0
    2.0758    0.9076   -0.1883 N   0  0  0  0  0  0  0  0  0  0  0  0
    1.3664    0.9990   -1.4875 C   0  0  0  0  0  0  0  0  0  0  0  0
    1.6828   -0.1373   -2.4736 C   0  0  0  0  0  0  0  0  0  0  0  0
    2.1338   -0.4356    0.4287 C   0  0  0  0  0  0  0  0  0  0  0  0
    1.9606   -0.3595    1.9518 C   0  0  0  0  0  0  0  0  0  0  0  0
    0.6265    0.1568    2.2952 N   0  0  0  0  0  0  0  0  0  0  0  0
    0.3953    1.5772    2.3653 C   0  0  0  0  0  0  0  0  0  0  0  0
    1.3575    2.3704    2.5525 O   0  0  0  0  0  0  0  0  0  0  0  0
   -0.9845    2.1295    2.1907 C   0  0  0  0  0  0  0  0  0  0  0  0
   -1.5413    1.6429    0.9332 N   0  0  0  0  0  0  0  0  0  0  0  0
   -1.8263    0.3978    0.6706 C   0  0  0  0  0  0  0  0  0  0  0  0
   -2.3729    0.0667   -0.6701 C   0  0  0  0  0  0  0  0  0  0  0  0
   -3.2123    0.9834   -1.3305 C   0  0  0  0  0  0  0  0  0  0  0  0
   -3.7159    0.6958   -2.6021 C   0  0  0  0  0  0  0  0  0  0  0  0
   -3.3811   -0.5033   -3.2333 C   0  0  0  0  0  0  0  0  0  0  0  0
   -2.5386   -1.4162   -2.5959 C   0  0  0  0  0  0  0  0  0  0  0  0
   -2.0320   -1.1378   -1.3224 C   0  0  0  0  0  0  0  0  0  0  0  0
   -1.1810   -2.0270   -0.7508 F   0  0  0  0  0  0  0  0  0  0  0  0
   -1.6481   -0.6674    1.6973 C   0  0  0  0  0  0  0  0  0  0  0  0
   -2.6804   -1.6027    1.8932 C   0  0  0  0  0  0  0  0  0  0  0  0
   -2.5522   -2.6160    2.8459 C   0  0  0  0  0  0  0  0  0  0  0  0
   -3.8504   -3.7728    3.0764 Cl  0  0  0  0  0  0  0  0  0  0  0  0
   -1.3941   -2.7038    3.6188 C   0  0  0  0  0  0  0  0  0  0  0  0
   -0.3605   -1.7841    3.4375 C   0  0  0  0  0  0  0  0  0  0  0  0
   -0.4683   -0.7647    2.4761 C   0  0  0  0  0  0  0  0  0  0  0  0
    5.3290    1.8620   -0.9109 H   0  0  0  0  0  0  0  0  0  0  0  0
    4.6353    0.2124   -1.0479 H   0  0  0  0  0  0  0  0  0  0  0  0
    4.0750    1.5454   -2.1493 H   0  0  0  0  0  0  0  0  0  0  0  0
    3.0872    2.7722   -0.2463 H   0  0  0  0  0  0  0  0  0  0  0  0
    3.7625    1.6167    0.9163 H   0  0  0  0  0  0  0  0  0  0  0  0
    1.5864    1.9726   -1.9784 H   0  0  0  0  0  0  0  0  0  0  0  0
    0.2747    0.9978   -1.2946 H   0  0  0  0  0  0  0  0  0  0  0  0
    1.3559    0.1608   -3.4920 H   0  0  0  0  0  0  0  0  0  0  0  0
    2.7639   -0.3703   -2.5079 H   0  0  0  0  0  0  0  0  0  0  0  0
    1.1268   -1.0589   -2.2048 H   0  0  0  0  0  0  0  0  0  0  0  0
    1.3120   -1.0803    0.0508 H   0  0  0  0  0  0  0  0  0  0  0  0
    3.0914   -0.9434    0.1884 H   0  0  0  0  0  0  0  0  0  0  0  0
    2.7532    0.2589    2.4207 H   0  0  0  0  0  0  0  0  0  0  0  0
    2.0964   -1.3832    2.3607 H   0  0  0  0  0  0  0  0  0  0  0  0
   -1.6318    1.8293    3.0428 H   0  0  0  0  0  0  0  0  0  0  0  0
   -0.9474    3.2391    2.1579 H   0  0  0  0  0  0  0  0  0  0  0  0
   -3.4869    1.9185   -0.8580 H   0  0  0  0  0  0  0  0  0  0  0  0
   -4.3657    1.4046   -3.0990 H   0  0  0  0  0  0  0  0  0  0  0  0
   -3.7698   -0.7227   -4.2193 H   0  0  0  0  0  0  0  0  0  0  0  0
   -2.2707   -2.3389   -3.0943 H   0  0  0  0  0  0  0  0  0  0  0  0
   -3.5908   -1.5395    1.3093 H   0  0  0  0  0  0  0  0  0  0  0  0
   -1.2945   -3.4830    4.3637 H   0  0  0  0  0  0  0  0  0  0  0  0
    0.5234   -1.8589    4.0578 H   0  0  0  0  0  0  0  0  0  0  0  0
  1  2  1  0
  2  3  1  0
  3  4  1  0
  4  5  1  0
  3  6  1  0
  6  7  1  0
  7  8  1  0
  8  9  1  0
  9 10  2  0
  9 11  1  0
 11 12  1  0
 12 13  2  0
 13 14  1  0
 14 15  2  0
 15 16  1  0
 16 17  2  0
 17 18  1  0
 18 19  2  0
 19 14  1  0
 19 20  1  0
 13 21  1  0
 21 22  2  0
 22 23  1  0
 23 24  1  0
 23 25  2  0
 25 26  1  0
 26 27  2  0
 27  8  1  0
 27 21  1  0
  1 28  1  0
  1 29  1  0
  1 30  1  0
  2 31  1  0
  2 32  1  0
  4 33  1  0
  4 34  1  0
  5 35  1  0
  5 36  1  0
  5 37  1  0
  6 38  1  0
  6 39  1  0
  7 40  1  0
  7 41  1  0
 11 42  1  0
 11 43  1  0
 15 44  1  0
 16 45  1  0
 17 46  1  0
 18 47  1  0
 22 48  1  0
 25 49  1  0
 26 50  1  0
M  END
> <ID>
HT0919

> <Class>
1.0

> <Clusters>
105

> <Fold>
2

$$$$