
     RDKit          3D

 31 32  0  0  0  0  0  0  0  0999 V2000
   -4.7634    2.2475   -0.5902 O   0  0  0  0  0  0  0  0  0  0  0  0
   -3.8825    1.3750   -0.3663 C   0  0  0  0  0  0  0  0  0  0  0  0
   -4.0934    0.3834    0.5529 N   0  0  0  0  0  0  0  0  0  0  0  0
   -2.6695    1.3905   -1.0385 C   0  0  0  0  0  0  0  0  0  0  0  0
   -2.2086    2.2635   -1.9551 N   0  0  0  0  0  0  0  0  0  0  0  0
   -1.7422    0.4445   -0.7746 C   0  0  0  0  0  0  0  0  0  0  0  0
   -0.9612    1.7852   -2.2226 C   0  0  0  0  0  0  0  0  0  0  0  0
   -0.6549    0.6638   -1.5214 N   0  0  0  0  0  0  0  0  0  0  0  0
   -1.9362   -0.5359    0.1394 N   0  0  0  0  0  0  0  0  0  0  0  0
    0.6156   -0.0500   -1.4872 C   0  0  0  0  0  0  0  0  0  0  0  0
   -3.1297   -0.5659    0.8086 C   0  0  0  0  0  0  0  0  0  0  0  0
    1.3698    0.4073   -0.3841 O   0  0  0  0  0  0  0  0  0  0  0  0
   -3.3683   -1.5876    1.7764 N   0  0  0  0  0  0  0  0  0  0  0  0
    2.5256   -0.3924   -0.1953 C   0  0  0  0  0  0  0  0  0  0  0  0
    3.6883    0.5237    0.2030 C   0  0  0  0  0  0  0  0  0  0  0  0
    2.2473   -1.4275    0.9092 C   0  0  0  0  0  0  0  0  0  0  0  0
    3.9321    1.4463   -0.8225 O   0  0  0  0  0  0  0  0  0  0  0  0
    3.3495   -2.2750    1.0937 O   0  0  0  0  0  0  0  0  0  0  0  0
   -5.0004    0.3510    1.0714 H   0  0  0  0  0  0  0  0  0  0  0  0
   -0.2802    2.2630   -2.9151 H   0  0  0  0  0  0  0  0  0  0  0  0
    0.4084   -1.1422   -1.4130 H   0  0  0  0  0  0  0  0  0  0  0  0
    1.1691    0.1430   -2.4338 H   0  0  0  0  0  0  0  0  0  0  0  0
   -2.6382   -2.3076    1.9731 H   0  0  0  0  0  0  0  0  0  0  0  0
   -4.2717   -1.6278    2.2982 H   0  0  0  0  0  0  0  0  0  0  0  0
    2.8398   -0.9332   -1.1224 H   0  0  0  0  0  0  0  0  0  0  0  0
    3.4345    1.0670    1.1415 H   0  0  0  0  0  0  0  0  0  0  0  0
    4.6052   -0.0833    0.3763 H   0  0  0  0  0  0  0  0  0  0  0  0
    1.3468   -2.0294    0.6514 H   0  0  0  0  0  0  0  0  0  0  0  0
    2.0314   -0.9066    1.8667 H   0  0  0  0  0  0  0  0  0  0  0  0
    4.6827    2.0149   -0.5089 H   0  0  0  0  0  0  0  0  0  0  0  0
    3.3546   -2.9051    0.3265 H   0  0  0  0  0  0  0  0  0  0  0  0
  1  2  2  0
  2  3  1  0
  2  4  1  0
  4  5  1  0
  6  4  2  0
  5  7  2  0
  8  6  1  0
  6  9  1  0
  7  8  1  0
  8 10  1  0
  9 11  2  0
 10 12  1  0
 13 11  1  0
 11  3  1  0
 12 14  1  0
 14 15  1  0
 14 16  1  0
 15 17  1  0
 16 18  1  0
  3 19  1  0
  7 20  1  0
 10 21  1  0
 10 22  1  0
 13 23  1  0
 13 24  1  0
 14 25  1  0
 15 26  1  0
 15 27  1  0
 16 28  1  0
 16 29  1  0
 17 30  1  0
 18 31  1  0
M  END
> <ID>
HT0964

> <Class>
1.0

> <Clusters>
116

> <Fold>
2

$$$$