
     RDKit          3D

 29 29  0  0  0  0  0  0  0  0999 V2000
   -1.3810    2.4600    0.0344 N   0  0  0  0  0  0  0  0  0  0  0  0
   -0.8526    1.4212   -0.8505 C   0  0  0  0  0  0  0  0  0  0  0  0
   -0.2852    0.2077   -0.0498 C   0  0  0  0  0  0  0  0  0  0  0  0
   -1.3758   -0.3751    0.9128 C   0  0  0  0  0  0  0  0  0  0  0  0
   -2.6222   -0.9512    0.2804 C   0  0  0  0  0  0  0  0  0  0  0  0
   -2.7535   -1.0412   -0.9681 O   0  0  0  0  0  0  0  0  0  0  0  0
   -3.6505   -1.4119    1.0968 O   0  0  0  0  0  0  0  0  0  0  0  0
    0.1891   -0.9018   -1.0536 C   0  0  0  0  0  0  0  0  0  0  0  0
    1.6645   -0.7550   -1.4459 C   0  0  0  0  0  0  0  0  0  0  0  0
    2.5905   -0.9023   -0.2245 C   0  0  0  0  0  0  0  0  0  0  0  0
    1.9524   -0.4010    1.0847 C   0  0  0  0  0  0  0  0  0  0  0  0
    0.9224    0.7048    0.8212 C   0  0  0  0  0  0  0  0  0  0  0  0
   -1.9114    3.1423   -0.5543 H   0  0  0  0  0  0  0  0  0  0  0  0
   -0.5782    2.9916    0.4418 H   0  0  0  0  0  0  0  0  0  0  0  0
   -1.6633    1.0920   -1.5334 H   0  0  0  0  0  0  0  0  0  0  0  0
   -0.0597    1.8557   -1.5004 H   0  0  0  0  0  0  0  0  0  0  0  0
   -1.7016    0.4153    1.6228 H   0  0  0  0  0  0  0  0  0  0  0  0
   -0.9245   -1.1794    1.5320 H   0  0  0  0  0  0  0  0  0  0  0  0
   -3.5792   -1.3632    2.1061 H   0  0  0  0  0  0  0  0  0  0  0  0
   -0.4201   -0.8892   -1.9830 H   0  0  0  0  0  0  0  0  0  0  0  0
    0.0600   -1.9125   -0.6055 H   0  0  0  0  0  0  0  0  0  0  0  0
    1.8208    0.2406   -1.9157 H   0  0  0  0  0  0  0  0  0  0  0  0
    1.9275   -1.5255   -2.2026 H   0  0  0  0  0  0  0  0  0  0  0  0
    3.5277   -0.3368   -0.4198 H   0  0  0  0  0  0  0  0  0  0  0  0
    2.8690   -1.9714   -0.0988 H   0  0  0  0  0  0  0  0  0  0  0  0
    1.4595   -1.2487    1.6076 H   0  0  0  0  0  0  0  0  0  0  0  0
    2.7479   -0.0145    1.7581 H   0  0  0  0  0  0  0  0  0  0  0  0
    0.5706    1.1116    1.7947 H   0  0  0  0  0  0  0  0  0  0  0  0
    1.4571    1.5382    0.3126 H   0  0  0  0  0  0  0  0  0  0  0  0
  1  2  1  0
  2  3  1  0
  3  4  1  0
  4  5  1  0
  5  6  2  0
  5  7  1  0
  3  8  1  0
  8  9  1  0
  9 10  1  0
 10 11  1  0
 11 12  1  0
 12  3  1  0
  1 13  1  0
  1 14  1  0
  2 15  1  0
  2 16  1  0
  4 17  1  0
  4 18  1  0
  7 19  1  0
  8 20  1  0
  8 21  1  0
  9 22  1  0
  9 23  1  0
 10 24  1  0
 10 25  1  0
 11 26  1  0
 11 27  1  0
 12 28  1  0
 12 29  1  0
M  END
> <ID>
HT0947

> <Class>
1.0

> <Clusters>
113

> <Fold>
2

$$$$