
     RDKit          3D

 40 40  0  0  0  0  0  0  0  0999 V2000
   -4.7672   -0.6312    2.3732 C   0  0  0  0  0  0  0  0  0  0  0  0
   -4.0585   -0.4991    1.0572 C   0  0  0  0  0  0  0  0  0  0  0  0
   -4.6821   -0.8912   -0.1349 C   0  0  0  0  0  0  0  0  0  0  0  0
   -4.0134   -0.7638   -1.3536 C   0  0  0  0  0  0  0  0  0  0  0  0
   -2.7105   -0.2436   -1.3993 C   0  0  0  0  0  0  0  0  0  0  0  0
   -1.9976   -0.1100   -2.7158 C   0  0  0  0  0  0  0  0  0  0  0  0
   -2.0749    0.1552   -0.2078 C   0  0  0  0  0  0  0  0  0  0  0  0
   -0.7722    0.6749   -0.2790 O   0  0  0  0  0  0  0  0  0  0  0  0
    0.0018    1.0845    0.8462 C   0  0  0  0  0  0  0  0  0  0  0  0
    1.3747    1.5761    0.3802 C   0  0  0  0  0  0  0  0  0  0  0  0
    2.2285    0.4532   -0.2607 C   0  0  0  0  0  0  0  0  0  0  0  0
    3.3723   -0.0995    0.6410 C   0  0  0  0  0  0  0  0  0  0  0  0
    2.7797   -0.7602    1.9083 C   0  0  0  0  0  0  0  0  0  0  0  0
    4.1424   -1.1838   -0.1410 C   0  0  0  0  0  0  0  0  0  0  0  0
    4.3479    1.0128    1.0102 C   0  0  0  0  0  0  0  0  0  0  0  0
    4.5717    1.2958    2.2183 O   0  0  0  0  0  0  0  0  0  0  0  0
    5.0146    1.7407    0.0254 O   0  0  0  0  0  0  0  0  0  0  0  0
   -2.7579    0.0228    1.0176 C   0  0  0  0  0  0  0  0  0  0  0  0
   -5.7852   -1.0580    2.2480 H   0  0  0  0  0  0  0  0  0  0  0  0
   -4.1864   -1.2986    3.0441 H   0  0  0  0  0  0  0  0  0  0  0  0
   -4.8610    0.3681    2.8481 H   0  0  0  0  0  0  0  0  0  0  0  0
   -5.6866   -1.2958   -0.1237 H   0  0  0  0  0  0  0  0  0  0  0  0
   -4.5147   -1.0728   -2.2626 H   0  0  0  0  0  0  0  0  0  0  0  0
   -1.0498   -0.6883   -2.6887 H   0  0  0  0  0  0  0  0  0  0  0  0
   -1.7657    0.9588   -2.9076 H   0  0  0  0  0  0  0  0  0  0  0  0
   -2.6147   -0.4913   -3.5571 H   0  0  0  0  0  0  0  0  0  0  0  0
    0.1178    0.2361    1.5526 H   0  0  0  0  0  0  0  0  0  0  0  0
   -0.5178    1.9178    1.3669 H   0  0  0  0  0  0  0  0  0  0  0  0
    1.9001    2.0450    1.2386 H   0  0  0  0  0  0  0  0  0  0  0  0
    1.2143    2.3816   -0.3697 H   0  0  0  0  0  0  0  0  0  0  0  0
    2.6692    0.8545   -1.1992 H   0  0  0  0  0  0  0  0  0  0  0  0
    1.5762   -0.3886   -0.5844 H   0  0  0  0  0  0  0  0  0  0  0  0
    2.0321   -1.5357    1.6338 H   0  0  0  0  0  0  0  0  0  0  0  0
    2.2840   -0.0095    2.5590 H   0  0  0  0  0  0  0  0  0  0  0  0
    3.5799   -1.2483    2.5061 H   0  0  0  0  0  0  0  0  0  0  0  0
    4.5456   -0.7836   -1.0953 H   0  0  0  0  0  0  0  0  0  0  0  0
    3.4751   -2.0383   -0.3869 H   0  0  0  0  0  0  0  0  0  0  0  0
    4.9942   -1.5701    0.4602 H   0  0  0  0  0  0  0  0  0  0  0  0
    4.8820    1.5596   -0.9613 H   0  0  0  0  0  0  0  0  0  0  0  0
   -2.2881    0.3237    1.9447 H   0  0  0  0  0  0  0  0  0  0  0  0
  1  2  1  0
  2  3  2  0
  3  4  1  0
  4  5  2  0
  5  6  1  0
  5  7  1  0
  7  8  1  0
  8  9  1  0
  9 10  1  0
 10 11  1  0
 11 12  1  0
 12 13  1  0
 12 14  1  0
 12 15  1  0
 15 16  2  0
 15 17  1  0
  7 18  2  0
 18  2  1  0
  1 19  1  0
  1 20  1  0
  1 21  1  0
  3 22  1  0
  4 23  1  0
  6 24  1  0
  6 25  1  0
  6 26  1  0
  9 27  1  0
  9 28  1  0
 10 29  1  0
 10 30  1  0
 11 31  1  0
 11 32  1  0
 13 33  1  0
 13 34  1  0
 13 35  1  0
 14 36  1  0
 14 37  1  0
 14 38  1  0
 17 39  1  0
 18 40  1  0
M  END
> <ID>
HT0970

> <Class>
1.0

> <Clusters>
77

> <Fold>
2

$$$$