
     RDKit          3D

 27 26  0  0  0  0  0  0  0  0999 V2000
   -4.1711   -2.1028   -0.4862 N   0  0  0  0  0  0  0  0  0  0  0  0
   -3.7100   -0.7300   -0.6671 C   0  0  0  0  0  0  0  0  0  0  0  0
   -2.1819   -0.6729   -0.5926 C   0  0  0  0  0  0  0  0  0  0  0  0
   -1.6702    0.7566   -0.8026 C   0  0  0  0  0  0  0  0  0  0  0  0
   -0.2004    0.7788   -0.7910 N   0  0  0  0  0  0  0  0  0  0  0  0
    0.3236    0.9867    0.5665 C   0  0  0  0  0  0  0  0  0  0  0  0
    1.8379    0.7901    0.5867 C   0  0  0  0  0  0  0  0  0  0  0  0
    2.2604   -0.9377    0.1756 S   0  0  0  0  0  0  0  0  0  0  0  0
    4.3482   -0.6571    0.4138 P   0  0  0  0  0  0  0  0  0  0  0  0
    5.0525   -1.9718    0.1690 O   0  0  0  0  0  0  0  0  0  0  0  0
    4.6840   -0.1283    1.9865 O   0  0  0  0  0  0  0  0  0  0  0  0
    4.9057    0.4851   -0.7037 O   0  0  0  0  0  0  0  0  0  0  0  0
   -4.0012   -2.3765    0.5091 H   0  0  0  0  0  0  0  0  0  0  0  0
   -5.2079   -2.1105   -0.6224 H   0  0  0  0  0  0  0  0  0  0  0  0
   -4.0451   -0.3629   -1.6622 H   0  0  0  0  0  0  0  0  0  0  0  0
   -4.1537   -0.0772    0.1183 H   0  0  0  0  0  0  0  0  0  0  0  0
   -1.8529   -1.0488    0.3997 H   0  0  0  0  0  0  0  0  0  0  0  0
   -1.7520   -1.3341   -1.3767 H   0  0  0  0  0  0  0  0  0  0  0  0
   -2.0960    1.4401   -0.0323 H   0  0  0  0  0  0  0  0  0  0  0  0
   -2.0294    1.1140   -1.7940 H   0  0  0  0  0  0  0  0  0  0  0  0
    0.1122    1.5892   -1.3766 H   0  0  0  0  0  0  0  0  0  0  0  0
    0.0907    2.0197    0.9107 H   0  0  0  0  0  0  0  0  0  0  0  0
   -0.1355    0.2708    1.2826 H   0  0  0  0  0  0  0  0  0  0  0  0
    2.2157    1.0300    1.6033 H   0  0  0  0  0  0  0  0  0  0  0  0
    2.3116    1.4801   -0.1436 H   0  0  0  0  0  0  0  0  0  0  0  0
    4.2553   -0.7992    2.5756 H   0  0  0  0  0  0  0  0  0  0  0  0
    4.8094    1.3581   -0.2463 H   0  0  0  0  0  0  0  0  0  0  0  0
  1  2  1  0
  2  3  1  0
  3  4  1  0
  4  5  1  0
  5  6  1  0
  6  7  1  0
  7  8  1  0
  8  9  1  0
  9 10  2  0
  9 11  1  0
  9 12  1  0
  1 13  1  0
  1 14  1  0
  2 15  1  0
  2 16  1  0
  3 17  1  0
  3 18  1  0
  4 19  1  0
  4 20  1  0
  5 21  1  0
  6 22  1  0
  6 23  1  0
  7 24  1  0
  7 25  1  0
 11 26  1  0
 12 27  1  0
M  END
> <ID>
HT0129

> <Class>
1.0

> <Clusters>
252

> <Fold>
2

$$$$