
     RDKit          3D

 43 45  0  0  0  0  0  0  0  0999 V2000
    5.7717    1.7963    2.0017 O   0  0  0  0  0  0  0  0  0  0  0  0
    6.2449    1.1124    0.8735 C   0  0  0  0  0  0  0  0  0  0  0  0
    5.1468    0.2153    0.2816 C   0  0  0  0  0  0  0  0  0  0  0  0
    4.7676   -0.7811    1.1987 O   0  0  0  0  0  0  0  0  0  0  0  0
    3.9292    1.0270   -0.1867 C   0  0  0  0  0  0  0  0  0  0  0  0
    2.9839    0.1543   -0.8058 O   0  0  0  0  0  0  0  0  0  0  0  0
    1.6743   -0.0415   -0.3477 C   0  0  0  0  0  0  0  0  0  0  0  0
    1.2660    0.5546    0.6864 O   0  0  0  0  0  0  0  0  0  0  0  0
    0.7912   -0.9951   -1.0600 C   0  0  0  0  0  0  0  0  0  0  0  0
    1.3845   -2.0435   -1.7873 C   0  0  0  0  0  0  0  0  0  0  0  0
    0.5977   -3.0060   -2.4220 C   0  0  0  0  0  0  0  0  0  0  0  0
   -0.7917   -2.9349   -2.3453 C   0  0  0  0  0  0  0  0  0  0  0  0
   -1.4002   -1.8943   -1.6433 C   0  0  0  0  0  0  0  0  0  0  0  0
   -0.6245   -0.9141   -0.9978 C   0  0  0  0  0  0  0  0  0  0  0  0
   -1.2807    0.1984   -0.3632 N   0  0  0  0  0  0  0  0  0  0  0  0
   -2.4863    0.0586    0.4118 C   0  0  0  0  0  0  0  0  0  0  0  0
   -2.6408   -1.0522    1.2570 C   0  0  0  0  0  0  0  0  0  0  0  0
   -3.7791   -1.1713    2.0529 C   0  0  0  0  0  0  0  0  0  0  0  0
   -4.7398   -0.2139    2.0184 N   0  0  0  0  0  0  0  0  0  0  0  0
   -4.6360    0.8778    1.2157 C   0  0  0  0  0  0  0  0  0  0  0  0
   -5.6595    1.8322    1.2126 C   0  0  0  0  0  0  0  0  0  0  0  0
   -5.5752    2.9499    0.3785 C   0  0  0  0  0  0  0  0  0  0  0  0
   -6.8626    4.1415    0.3763 Cl  0  0  0  0  0  0  0  0  0  0  0  0
   -4.4704    3.1140   -0.4611 C   0  0  0  0  0  0  0  0  0  0  0  0
   -3.4406    2.1685   -0.4663 C   0  0  0  0  0  0  0  0  0  0  0  0
   -3.5015    1.0441    0.3817 C   0  0  0  0  0  0  0  0  0  0  0  0
    6.5287    2.3505    2.3250 H   0  0  0  0  0  0  0  0  0  0  0  0
    6.5811    1.8431    0.1038 H   0  0  0  0  0  0  0  0  0  0  0  0
    7.1149    0.4792    1.1581 H   0  0  0  0  0  0  0  0  0  0  0  0
    5.5767   -0.2928   -0.6092 H   0  0  0  0  0  0  0  0  0  0  0  0
    4.3179   -0.3346    1.9631 H   0  0  0  0  0  0  0  0  0  0  0  0
    4.2523    1.7805   -0.9364 H   0  0  0  0  0  0  0  0  0  0  0  0
    3.4829    1.5754    0.6710 H   0  0  0  0  0  0  0  0  0  0  0  0
    2.4623   -2.1337   -1.8469 H   0  0  0  0  0  0  0  0  0  0  0  0
    1.0675   -3.8120   -2.9709 H   0  0  0  0  0  0  0  0  0  0  0  0
   -1.3994   -3.6808   -2.8412 H   0  0  0  0  0  0  0  0  0  0  0  0
   -2.4812   -1.8373   -1.6236 H   0  0  0  0  0  0  0  0  0  0  0  0
   -0.8561    1.1465   -0.4655 H   0  0  0  0  0  0  0  0  0  0  0  0
   -1.8727   -1.8130    1.3146 H   0  0  0  0  0  0  0  0  0  0  0  0
   -3.8953   -2.0248    2.7073 H   0  0  0  0  0  0  0  0  0  0  0  0
   -6.5224    1.7034    1.8548 H   0  0  0  0  0  0  0  0  0  0  0  0
   -4.4105    3.9738   -1.1164 H   0  0  0  0  0  0  0  0  0  0  0  0
   -2.6156    2.3215   -1.1476 H   0  0  0  0  0  0  0  0  0  0  0  0
  1  2  1  0
  2  3  1  0
  3  4  1  0
  3  5  1  0
  5  6  1  0
  6  7  1  0
  7  8  2  0
  7  9  1  0
  9 10  2  0
 10 11  1  0
 11 12  2  0
 12 13  1  0
 13 14  2  0
 14  9  1  0
 14 15  1  0
 15 16  1  0
 16 17  2  0
 17 18  1  0
 18 19  2  0
 19 20  1  0
 20 21  2  0
 21 22  1  0
 22 23  1  0
 22 24  2  0
 24 25  1  0
 25 26  2  0
 26 16  1  0
 26 20  1  0
  1 27  1  0
  2 28  1  0
  2 29  1  0
  3 30  1  0
  4 31  1  0
  5 32  1  0
  5 33  1  0
 10 34  1  0
 11 35  1  0
 12 36  1  0
 13 37  1  0
 15 38  1  0
 17 39  1  0
 18 40  1  0
 21 41  1  0
 24 42  1  0
 25 43  1  0
M  END
> <ID>
HT0983

> <Class>
1.0

> <Clusters>
153

> <Fold>
2

$$$$