
     RDKit          3D

 92 96  0  0  0  0  0  0  0  0999 V2000
   -4.5488   -5.4799    0.0491 C   0  0  0  0  0  0  0  0  0  0  0  0
   -3.3776   -4.8059    0.7890 C   0  0  0  0  0  0  0  0  0  0  0  0
   -2.0633   -5.0176    0.0126 C   0  0  0  0  0  0  0  0  0  0  0  0
   -3.2323   -5.4630    2.1769 C   0  0  0  0  0  0  0  0  0  0  0  0
   -3.6484   -3.3651    0.9674 N   0  0  0  0  0  0  0  0  0  0  0  0
   -3.8190   -2.4113   -0.0992 C   0  0  0  0  0  0  0  0  0  0  0  0
   -3.7783   -2.7844   -1.3029 O   0  0  0  0  0  0  0  0  0  0  0  0
   -4.1377   -0.9723    0.2327 C   0  0  0  0  0  0  0  0  0  0  0  0
   -4.2762   -0.0304   -0.9905 C   0  0  0  0  0  0  0  0  0  0  0  0
   -4.0810    1.3887   -0.6097 N   0  0  0  0  0  0  0  0  0  0  0  0
   -4.6605    2.2872   -1.6269 C   0  0  0  0  0  0  0  0  0  0  0  0
   -4.0644    3.6663   -1.5155 C   0  0  0  0  0  0  0  0  0  0  0  0
   -2.6823    3.8556   -1.6629 C   0  0  0  0  0  0  0  0  0  0  0  0
   -2.1375    5.1371   -1.5570 C   0  0  0  0  0  0  0  0  0  0  0  0
   -2.9821    6.2195   -1.3031 C   0  0  0  0  0  0  0  0  0  0  0  0
   -4.3197    6.0219   -1.1649 N   0  0  0  0  0  0  0  0  0  0  0  0
   -4.8758    4.7840   -1.2658 C   0  0  0  0  0  0  0  0  0  0  0  0
   -4.6213    1.6719    0.7359 C   0  0  0  0  0  0  0  0  0  0  0  0
   -3.8875    0.8326    1.8142 C   0  0  0  0  0  0  0  0  0  0  0  0
   -3.2414   -0.3910    1.2662 N   0  0  0  0  0  0  0  0  0  0  0  0
   -1.8413   -0.1024    0.8345 C   0  0  0  0  0  0  0  0  0  0  0  0
   -0.9661   -1.3755    0.7039 C   0  0  1  0  0  0  0  0  0  0  0  0
   -1.0728   -1.9866   -0.5597 O   0  0  0  0  0  0  0  0  0  0  0  0
    0.5265   -1.1593    1.0598 C   0  0  0  0  0  0  0  0  0  0  0  0
    1.3506   -0.2834    0.0643 C   0  0  1  0  0  0  0  0  0  0  0  0
    1.3128    1.2336    0.3849 C   0  0  0  0  0  0  0  0  0  0  0  0
    2.0663    1.6155    1.6390 C   0  0  0  0  0  0  0  0  0  0  0  0
    1.4034    1.7254    2.8735 C   0  0  0  0  0  0  0  0  0  0  0  0
    2.1094    2.0897    4.0249 C   0  0  0  0  0  0  0  0  0  0  0  0
    3.4769    2.3643    3.9499 C   0  0  0  0  0  0  0  0  0  0  0  0
    4.1392    2.2828    2.7216 C   0  0  0  0  0  0  0  0  0  0  0  0
    3.4354    1.9225    1.5697 C   0  0  0  0  0  0  0  0  0  0  0  0
    2.7827   -0.7686   -0.0603 C   0  0  0  0  0  0  0  0  0  0  0  0
    3.3054   -1.4594    0.8574 O   0  0  0  0  0  0  0  0  0  0  0  0
    3.5522   -0.4228   -1.2209 N   0  0  0  0  0  0  0  0  0  0  0  0
    4.8685   -1.0106   -1.4953 C   0  0  0  0  0  0  0  0  0  0  0  0
    5.1191   -1.2198   -3.0160 C   0  0  1  0  0  0  0  0  0  0  0  0
    3.9351   -1.2844   -3.7741 O   0  0  0  0  0  0  0  0  0  0  0  0
    6.0858   -0.1014   -3.4801 C   0  0  0  0  0  0  0  0  0  0  0  0
    6.5874    0.4673   -2.2048 C   0  0  0  0  0  0  0  0  0  0  0  0
    7.5923    1.4283   -2.0558 C   0  0  0  0  0  0  0  0  0  0  0  0
    7.9372    1.8522   -0.7630 C   0  0  0  0  0  0  0  0  0  0  0  0
    7.2808    1.3096    0.3563 C   0  0  0  0  0  0  0  0  0  0  0  0
    6.2730    0.3486    0.1863 C   0  0  0  0  0  0  0  0  0  0  0  0
    5.9342   -0.0504   -1.1104 C   0  0  0  0  0  0  0  0  0  0  0  0
   -5.5069   -5.2654    0.5710 H   0  0  0  0  0  0  0  0  0  0  0  0
   -4.6322   -5.1205   -0.9967 H   0  0  0  0  0  0  0  0  0  0  0  0
   -4.4039   -6.5815    0.0133 H   0  0  0  0  0  0  0  0  0  0  0  0
   -1.8138   -6.0978   -0.0510 H   0  0  0  0  0  0  0  0  0  0  0  0
   -2.1383   -4.6320   -1.0228 H   0  0  0  0  0  0  0  0  0  0  0  0
   -1.2243   -4.5001    0.5227 H   0  0  0  0  0  0  0  0  0  0  0  0
   -3.0175   -6.5501    2.0833 H   0  0  0  0  0  0  0  0  0  0  0  0
   -2.4017   -4.9896    2.7436 H   0  0  0  0  0  0  0  0  0  0  0  0
   -4.1684   -5.3382    2.7643 H   0  0  0  0  0  0  0  0  0  0  0  0
   -3.7304   -2.9925    1.9409 H   0  0  0  0  0  0  0  0  0  0  0  0
   -5.1566   -1.0418    0.6777 H   0  0  0  0  0  0  0  0  0  0  0  0
   -3.5085   -0.2898   -1.7522 H   0  0  0  0  0  0  0  0  0  0  0  0
   -5.2799   -0.1871   -1.4489 H   0  0  0  0  0  0  0  0  0  0  0  0
   -5.7702    2.3157   -1.5358 H   0  0  0  0  0  0  0  0  0  0  0  0
   -4.4276    1.9125   -2.6487 H   0  0  0  0  0  0  0  0  0  0  0  0
   -2.0309    3.0130   -1.8585 H   0  0  0  0  0  0  0  0  0  0  0  0
   -1.0715    5.2901   -1.6678 H   0  0  0  0  0  0  0  0  0  0  0  0
   -2.5749    7.2182   -1.2160 H   0  0  0  0  0  0  0  0  0  0  0  0
   -5.9468    4.6735   -1.1451 H   0  0  0  0  0  0  0  0  0  0  0  0
   -5.7116    1.4413    0.7647 H   0  0  0  0  0  0  0  0  0  0  0  0
   -4.4980    2.7485    0.9857 H   0  0  0  0  0  0  0  0  0  0  0  0
   -3.1610    1.4758    2.3586 H   0  0  0  0  0  0  0  0  0  0  0  0
   -4.6297    0.5234    2.5831 H   0  0  0  0  0  0  0  0  0  0  0  0
   -1.3604    0.5173    1.6183 H   0  0  0  0  0  0  0  0  0  0  0  0
   -1.8045    0.5020   -0.0934 H   0  0  0  0  0  0  0  0  0  0  0  0
   -1.3419   -2.0994    1.4582 H   0  0  0  0  0  0  0  0  0  0  0  0
   -1.1370   -1.2856   -1.2552 H   0  0  0  0  0  0  0  0  0  0  0  0
    0.6153   -0.7738    2.0951 H   0  0  0  0  0  0  0  0  0  0  0  0
    0.9629   -2.1816    1.0897 H   0  0  0  0  0  0  0  0  0  0  0  0
    0.9097   -0.4045   -0.9459 H   0  0  0  0  0  0  0  0  0  0  0  0
    1.7416    1.7933   -0.4761 H   0  0  0  0  0  0  0  0  0  0  0  0
    0.2685    1.5923    0.4516 H   0  0  0  0  0  0  0  0  0  0  0  0
    0.3433    1.5283    2.9483 H   0  0  0  0  0  0  0  0  0  0  0  0
    1.5960    2.1603    4.9754 H   0  0  0  0  0  0  0  0  0  0  0  0
    4.0207    2.6492    4.8415 H   0  0  0  0  0  0  0  0  0  0  0  0
    5.1963    2.5057    2.6604 H   0  0  0  0  0  0  0  0  0  0  0  0
    3.9547    1.8859    0.6217 H   0  0  0  0  0  0  0  0  0  0  0  0
    3.2243    0.3810   -1.8023 H   0  0  0  0  0  0  0  0  0  0  0  0
    4.9983   -1.9754   -0.9547 H   0  0  0  0  0  0  0  0  0  0  0  0
    5.6468   -2.1914   -3.1385 H   0  0  0  0  0  0  0  0  0  0  0  0
    3.5935   -0.3638   -3.9062 H   0  0  0  0  0  0  0  0  0  0  0  0
    6.9243   -0.5259   -4.0727 H   0  0  0  0  0  0  0  0  0  0  0  0
    5.5741    0.6935   -4.0635 H   0  0  0  0  0  0  0  0  0  0  0  0
    8.0965    1.8408   -2.9198 H   0  0  0  0  0  0  0  0  0  0  0  0
    8.7087    2.5994   -0.6268 H   0  0  0  0  0  0  0  0  0  0  0  0
    7.5491    1.6369    1.3522 H   0  0  0  0  0  0  0  0  0  0  0  0
    5.7641   -0.0692    1.0461 H   0  0  0  0  0  0  0  0  0  0  0  0
  1  2  1  0
  2  3  1  0
  2  4  1  0
  2  5  1  0
  5  6  1  0
  6  7  2  0
  6  8  1  0
  8  9  1  0
  9 10  1  0
 10 11  1  0
 11 12  1  0
 12 13  2  0
 13 14  1  0
 14 15  2  0
 15 16  1  0
 16 17  2  0
 17 12  1  0
 10 18  1  0
 18 19  1  0
 19 20  1  0
 20  8  1  0
 20 21  1  0
 21 22  1  0
 22 23  1  0
 22 24  1  0
 24 25  1  0
 25 26  1  0
 26 27  1  0
 27 28  2  0
 28 29  1  0
 29 30  2  0
 30 31  1  0
 31 32  2  0
 32 27  1  0
 25 33  1  0
 33 34  2  0
 33 35  1  0
 35 36  1  0
 36 37  1  0
 37 38  1  0
 37 39  1  0
 39 40  1  0
 40 41  2  0
 41 42  1  0
 42 43  2  0
 43 44  1  0
 44 45  2  0
 45 36  1  0
 45 40  1  0
  1 46  1  0
  1 47  1  0
  1 48  1  0
  3 49  1  0
  3 50  1  0
  3 51  1  0
  4 52  1  0
  4 53  1  0
  4 54  1  0
  5 55  1  0
  8 56  1  0
  9 57  1  0
  9 58  1  0
 11 59  1  0
 11 60  1  0
 13 61  1  0
 14 62  1  0
 15 63  1  0
 17 64  1  0
 18 65  1  0
 18 66  1  0
 19 67  1  0
 19 68  1  0
 21 69  1  0
 21 70  1  0
 22 71  1  1
 23 72  1  0
 24 73  1  0
 24 74  1  0
 25 75  1  6
 26 76  1  0
 26 77  1  0
 28 78  1  0
 29 79  1  0
 30 80  1  0
 31 81  1  0
 32 82  1  0
 35 83  1  0
 36 84  1  0
 37 85  1  1
 38 86  1  0
 39 87  1  0
 39 88  1  0
 41 89  1  0
 42 90  1  0
 43 91  1  0
 44 92  1  0
M  END
> <ID>
HT1093

> <Class>
1.0

> <Clusters>
214

> <Fold>
2

$$$$