
     RDKit          3D

 32 33  0  0  0  0  0  0  0  0999 V2000
   -0.3425    2.6163    0.3184 C   0  0  0  0  0  0  0  0  0  0  0  0
   -0.6070    1.5340   -0.6443 N   0  0  0  0  0  0  0  0  0  0  0  0
   -0.2815    0.1497   -0.2035 C   0  0  0  0  0  0  0  0  0  0  0  0
   -0.8928   -0.1175    1.2168 C   0  0  0  0  0  0  0  0  0  0  0  0
   -2.4301   -0.1042    1.2121 C   0  0  0  0  0  0  0  0  0  0  0  0
   -2.9773   -1.1510    0.2354 C   0  0  0  0  0  0  0  0  0  0  0  0
   -2.4823   -0.8780   -1.1856 C   0  0  0  0  0  0  0  0  0  0  0  0
   -0.9811   -0.7641   -1.2071 C   0  0  0  0  0  0  0  0  0  0  0  0
   -0.3520   -1.3422   -2.0827 O   0  0  0  0  0  0  0  0  0  0  0  0
    1.2508   -0.1485   -0.1900 C   0  0  0  0  0  0  0  0  0  0  0  0
    2.2005    0.8564   -0.5131 C   0  0  0  0  0  0  0  0  0  0  0  0
    3.5726    0.6060   -0.4695 C   0  0  0  0  0  0  0  0  0  0  0  0
    4.0453   -0.6543   -0.1277 C   0  0  0  0  0  0  0  0  0  0  0  0
    3.1470   -1.6790    0.1476 C   0  0  0  0  0  0  0  0  0  0  0  0
    1.7652   -1.4526    0.1065 C   0  0  0  0  0  0  0  0  0  0  0  0
    0.7573   -2.8821    0.3525 Cl  0  0  0  0  0  0  0  0  0  0  0  0
   -0.1839    3.5725   -0.2245 H   0  0  0  0  0  0  0  0  0  0  0  0
   -1.2231    2.7511    0.9792 H   0  0  0  0  0  0  0  0  0  0  0  0
    0.5505    2.4176    0.9462 H   0  0  0  0  0  0  0  0  0  0  0  0
   -0.1649    1.7471   -1.5693 H   0  0  0  0  0  0  0  0  0  0  0  0
   -0.5782   -1.0937    1.6248 H   0  0  0  0  0  0  0  0  0  0  0  0
   -0.5245    0.6182    1.9603 H   0  0  0  0  0  0  0  0  0  0  0  0
   -2.8077    0.9029    0.9336 H   0  0  0  0  0  0  0  0  0  0  0  0
   -2.8003   -0.3333    2.2348 H   0  0  0  0  0  0  0  0  0  0  0  0
   -4.0880   -1.1210    0.2485 H   0  0  0  0  0  0  0  0  0  0  0  0
   -2.6573   -2.1675    0.5549 H   0  0  0  0  0  0  0  0  0  0  0  0
   -2.9210    0.0754   -1.5512 H   0  0  0  0  0  0  0  0  0  0  0  0
   -2.8203   -1.6943   -1.8606 H   0  0  0  0  0  0  0  0  0  0  0  0
    1.9127    1.8501   -0.8134 H   0  0  0  0  0  0  0  0  0  0  0  0
    4.2735    1.3957   -0.7091 H   0  0  0  0  0  0  0  0  0  0  0  0
    5.1106   -0.8440   -0.0977 H   0  0  0  0  0  0  0  0  0  0  0  0
    3.5299   -2.6655    0.3779 H   0  0  0  0  0  0  0  0  0  0  0  0
  1  2  1  0
  2  3  1  0
  3  4  1  0
  4  5  1  0
  5  6  1  0
  6  7  1  0
  7  8  1  0
  8  3  1  0
  8  9  2  0
  3 10  1  0
 10 11  2  0
 11 12  1  0
 12 13  2  0
 13 14  1  0
 14 15  2  0
 15 10  1  0
 15 16  1  0
  1 17  1  0
  1 18  1  0
  1 19  1  0
  2 20  1  0
  4 21  1  0
  4 22  1  0
  5 23  1  0
  5 24  1  0
  6 25  1  0
  6 26  1  0
  7 27  1  0
  7 28  1  0
 11 29  1  0
 12 30  1  0
 13 31  1  0
 14 32  1  0
M  END
> <ID>
HT1157

> <Class>
1.0

> <Clusters>
250

> <Fold>
2

$$$$