
     RDKit          3D

 58 59  0  0  0  0  0  0  0  0999 V2000
   -8.3712    3.0533    1.3526 C   0  0  0  0  0  0  0  0  0  0  0  0
   -7.1580    2.4213    0.8343 C   0  0  0  0  0  0  0  0  0  0  0  0
   -6.1588    1.8995    0.4072 C   0  0  0  0  0  0  0  0  0  0  0  0
   -4.9419    1.2620   -0.1132 C   0  0  0  0  0  0  0  0  0  0  0  0
   -4.5620    0.0119    0.7154 C   0  0  0  0  0  0  0  0  0  0  0  0
   -5.5819   -1.1257    0.5240 C   0  0  0  0  0  0  0  0  0  0  0  0
   -3.1126   -0.4731    0.4303 C   0  0  2  0  0  0  0  0  0  0  0  0
   -2.1999    0.5413    0.7613 O   0  0  0  0  0  0  0  0  0  0  0  0
   -2.8954   -0.8892   -1.0124 C   0  0  0  0  0  0  0  0  0  0  0  0
   -1.7587   -1.4431   -1.4767 C   0  0  0  0  0  0  0  0  0  0  0  0
   -0.5150   -1.6858   -0.6374 C   0  0  1  0  0  0  0  0  0  0  0  0
    0.3284   -2.8174   -1.2413 C   0  0  2  0  0  0  0  0  0  0  0  0
    1.0918   -3.4418   -0.2407 O   0  0  0  0  0  0  0  0  0  0  0  0
    1.2614   -2.1303   -2.2269 C   0  0  0  0  0  0  0  0  0  0  0  0
    1.5440   -0.7422   -1.6425 C   0  0  2  0  0  0  0  0  0  0  0  0
    2.8716   -0.6691   -0.8720 C   0  0  0  0  0  0  0  0  0  0  0  0
    2.5034   -0.2627    0.5129 C   0  0  0  0  0  0  0  0  0  0  0  0
    3.3797   -0.0519    1.5147 C   0  0  0  0  0  0  0  0  0  0  0  0
    4.8750   -0.1496    1.3554 C   0  0  0  0  0  0  0  0  0  0  0  0
    5.4593    1.1843    0.8770 C   0  0  0  0  0  0  0  0  0  0  0  0
    6.9852    1.0954    0.7310 C   0  0  0  0  0  0  0  0  0  0  0  0
    7.6065    2.3797    0.2595 C   0  0  0  0  0  0  0  0  0  0  0  0
    6.9018    3.3959    0.0118 O   0  0  0  0  0  0  0  0  0  0  0  0
    8.9862    2.4421    0.0928 O   0  0  0  0  0  0  0  0  0  0  0  0
    1.0371   -0.1345    0.7130 C   0  0  0  0  0  0  0  0  0  0  0  0
    0.4029   -0.4405   -0.6546 C   0  0  2  0  0  0  0  0  0  0  0  0
   -9.2422    2.7371    0.7424 H   0  0  0  0  0  0  0  0  0  0  0  0
   -8.5270    2.7455    2.4071 H   0  0  0  0  0  0  0  0  0  0  0  0
   -8.2644    4.1564    1.3017 H   0  0  0  0  0  0  0  0  0  0  0  0
   -4.1256    2.0132   -0.0717 H   0  0  0  0  0  0  0  0  0  0  0  0
   -5.1122    0.9967   -1.1772 H   0  0  0  0  0  0  0  0  0  0  0  0
   -4.5941    0.2942    1.7929 H   0  0  0  0  0  0  0  0  0  0  0  0
   -5.2814   -2.0157    1.1166 H   0  0  0  0  0  0  0  0  0  0  0  0
   -6.5854   -0.8070    0.8773 H   0  0  0  0  0  0  0  0  0  0  0  0
   -5.6627   -1.4180   -0.5438 H   0  0  0  0  0  0  0  0  0  0  0  0
   -2.9244   -1.3648    1.0724 H   0  0  0  0  0  0  0  0  0  0  0  0
   -2.1227    0.5504    1.7509 H   0  0  0  0  0  0  0  0  0  0  0  0
   -3.7029   -0.7628   -1.7259 H   0  0  0  0  0  0  0  0  0  0  0  0
   -1.7264   -1.7047   -2.5316 H   0  0  0  0  0  0  0  0  0  0  0  0
   -0.8263   -1.9771    0.3880 H   0  0  0  0  0  0  0  0  0  0  0  0
   -0.2947   -3.5788   -1.7680 H   0  0  0  0  0  0  0  0  0  0  0  0
    0.4776   -4.0506    0.2470 H   0  0  0  0  0  0  0  0  0  0  0  0
    2.1801   -2.7276   -2.4164 H   0  0  0  0  0  0  0  0  0  0  0  0
    0.7334   -2.0120   -3.1992 H   0  0  0  0  0  0  0  0  0  0  0  0
    1.5513    0.0124   -2.4616 H   0  0  0  0  0  0  0  0  0  0  0  0
    3.5351    0.0917   -1.3338 H   0  0  0  0  0  0  0  0  0  0  0  0
    3.4002   -1.6458   -0.8415 H   0  0  0  0  0  0  0  0  0  0  0  0
    2.9982    0.2187    2.4958 H   0  0  0  0  0  0  0  0  0  0  0  0
    5.3131   -0.4012    2.3456 H   0  0  0  0  0  0  0  0  0  0  0  0
    5.1452   -0.9691    0.6553 H   0  0  0  0  0  0  0  0  0  0  0  0
    5.0136    1.4579   -0.1034 H   0  0  0  0  0  0  0  0  0  0  0  0
    5.2055    1.9789    1.6133 H   0  0  0  0  0  0  0  0  0  0  0  0
    7.4346    0.8291    1.7119 H   0  0  0  0  0  0  0  0  0  0  0  0
    7.2400    0.2963    0.0019 H   0  0  0  0  0  0  0  0  0  0  0  0
    9.4336    3.2935   -0.2251 H   0  0  0  0  0  0  0  0  0  0  0  0
    0.7931    0.9045    1.0259 H   0  0  0  0  0  0  0  0  0  0  0  0
    0.7106   -0.8346    1.5119 H   0  0  0  0  0  0  0  0  0  0  0  0
   -0.1516    0.4633   -0.9979 H   0  0  0  0  0  0  0  0  0  0  0  0
  1  2  1  0
  2  3  3  0
  3  4  1  0
  4  5  1  0
  5  6  1  0
  5  7  1  0
  7  8  1  0
  7  9  1  0
  9 10  2  3
 11 10  1  0
 11 12  1  0
 12 13  1  0
 12 14  1  0
 15 14  1  0
 15 16  1  0
 16 17  1  0
 17 18  2  3
 18 19  1  0
 19 20  1  0
 20 21  1  0
 21 22  1  0
 22 23  2  0
 22 24  1  0
 17 25  1  0
 26 25  1  0
 26 11  1  0
 26 15  1  0
  1 27  1  0
  1 28  1  0
  1 29  1  0
  4 30  1  0
  4 31  1  0
  5 32  1  0
  6 33  1  0
  6 34  1  0
  6 35  1  0
  7 36  1  1
  8 37  1  0
  9 38  1  0
 10 39  1  0
 11 40  1  1
 12 41  1  6
 13 42  1  0
 14 43  1  0
 14 44  1  0
 15 45  1  6
 16 46  1  0
 16 47  1  0
 18 48  1  0
 19 49  1  0
 19 50  1  0
 20 51  1  0
 20 52  1  0
 21 53  1  0
 21 54  1  0
 24 55  1  0
 25 56  1  0
 25 57  1  0
 26 58  1  6
M  END
> <ID>
HT1079

> <Class>
1.0

> <Clusters>
81

> <Fold>
2

$$$$