
     RDKit          3D

 28 29  0  0  0  0  0  0  0  0999 V2000
    4.0184    0.5214   -0.6910 N   0  0  0  0  0  0  0  0  0  0  0  0
    2.8671    1.3724    0.2780 S   0  0  0  0  0  0  0  0  0  0  0  0
    2.6776    2.7405   -0.3168 O   0  0  0  0  0  0  0  0  0  0  0  0
    3.3938    1.5279    1.6768 O   0  0  0  0  0  0  0  0  0  0  0  0
    1.3150    0.5090    0.3179 C   0  0  0  0  0  0  0  0  0  0  0  0
    0.1489    1.2608    0.0971 C   0  0  0  0  0  0  0  0  0  0  0  0
   -1.1063    0.6520    0.0879 C   0  0  0  0  0  0  0  0  0  0  0  0
   -1.2225   -0.7265    0.2844 C   0  0  0  0  0  0  0  0  0  0  0  0
   -2.5110   -1.3631    0.2517 N   0  0  0  0  0  0  0  0  0  0  0  0
   -3.6788   -0.7314   -0.3687 C   0  0  0  0  0  0  0  0  0  0  0  0
   -3.9257    0.5957    0.1990 N   0  0  0  0  0  0  0  0  0  0  0  0
   -2.5583    1.6083   -0.1390 S   0  0  0  0  0  0  0  0  0  0  0  0
   -2.5579    2.7764    0.8065 O   0  0  0  0  0  0  0  0  0  0  0  0
   -2.6318    2.1001   -1.5571 O   0  0  0  0  0  0  0  0  0  0  0  0
   -0.0736   -1.4852    0.5323 C   0  0  0  0  0  0  0  0  0  0  0  0
    1.2044   -0.8882    0.5780 C   0  0  0  0  0  0  0  0  0  0  0  0
    2.4104   -1.7790    0.8223 C   0  0  0  0  0  0  0  0  0  0  0  0
    3.3069   -1.1781    1.6843 F   0  0  0  0  0  0  0  0  0  0  0  0
    3.0348   -2.0483   -0.3807 F   0  0  0  0  0  0  0  0  0  0  0  0
    2.0391   -2.9839    1.3952 F   0  0  0  0  0  0  0  0  0  0  0  0
    4.8875    1.1004   -0.7141 H   0  0  0  0  0  0  0  0  0  0  0  0
    3.6420    0.5017   -1.6653 H   0  0  0  0  0  0  0  0  0  0  0  0
    0.2101    2.3290   -0.0663 H   0  0  0  0  0  0  0  0  0  0  0  0
   -2.6119   -2.3363    0.6193 H   0  0  0  0  0  0  0  0  0  0  0  0
   -3.5218   -0.6532   -1.4668 H   0  0  0  0  0  0  0  0  0  0  0  0
   -4.5743   -1.3684   -0.2048 H   0  0  0  0  0  0  0  0  0  0  0  0
   -3.9959    0.4979    1.2383 H   0  0  0  0  0  0  0  0  0  0  0  0
   -0.1864   -2.5519    0.6791 H   0  0  0  0  0  0  0  0  0  0  0  0
  1  2  1  0
  2  3  2  0
  2  4  2  0
  2  5  1  0
  5  6  2  0
  6  7  1  0
  7  8  2  0
  8  9  1  0
  9 10  1  0
 10 11  1  0
 11 12  1  0
 12  7  1  0
 12 13  2  0
 12 14  2  0
  8 15  1  0
 15 16  2  0
 16  5  1  0
 16 17  1  0
 17 18  1  0
 17 19  1  0
 17 20  1  0
  1 21  1  0
  1 22  1  0
  6 23  1  0
  9 24  1  0
 10 25  1  0
 10 26  1  0
 11 27  1  0
 15 28  1  0
M  END
> <ID>
HT1055

> <Class>
1.0

> <Clusters>
128

> <Fold>
2

$$$$