
     RDKit          3D

 25 26  0  0  0  0  0  0  0  0999 V2000
    3.8372   -1.3618    0.0902 N   0  0  0  0  0  0  0  0  0  0  0  0
    3.4064    0.2536    0.5365 S   0  0  0  0  0  0  0  0  0  0  0  0
    3.7920    0.4800    1.9712 O   0  0  0  0  0  0  0  0  0  0  0  0
    4.1550    1.2150   -0.3439 O   0  0  0  0  0  0  0  0  0  0  0  0
    1.6673    0.5150    0.3515 C   0  0  0  0  0  0  0  0  0  0  0  0
    0.8427   -0.5501   -0.0424 C   0  0  0  0  0  0  0  0  0  0  0  0
   -0.5349   -0.3609   -0.1935 C   0  0  0  0  0  0  0  0  0  0  0  0
   -1.1100    0.8924    0.0597 C   0  0  0  0  0  0  0  0  0  0  0  0
   -2.5264    1.0899   -0.0859 N   0  0  0  0  0  0  0  0  0  0  0  0
   -3.4702   -0.0291   -0.0961 C   0  0  0  0  0  0  0  0  0  0  0  0
   -3.1100   -0.9963   -1.1337 N   0  0  0  0  0  0  0  0  0  0  0  0
   -1.5601   -1.6715   -0.7445 S   0  0  0  0  0  0  0  0  0  0  0  0
   -0.9725   -2.3028   -1.9749 O   0  0  0  0  0  0  0  0  0  0  0  0
   -1.7054   -2.7016    0.3405 O   0  0  0  0  0  0  0  0  0  0  0  0
   -0.2891    1.9603    0.4428 C   0  0  0  0  0  0  0  0  0  0  0  0
    1.0911    1.7796    0.5949 C   0  0  0  0  0  0  0  0  0  0  0  0
    2.0589    3.1612    1.0993 Cl  0  0  0  0  0  0  0  0  0  0  0  0
    4.8578   -1.4703    0.2842 H   0  0  0  0  0  0  0  0  0  0  0  0
    3.7205   -1.4351   -0.9454 H   0  0  0  0  0  0  0  0  0  0  0  0
    1.2642   -1.5268   -0.2383 H   0  0  0  0  0  0  0  0  0  0  0  0
   -2.9087    2.0624   -0.1129 H   0  0  0  0  0  0  0  0  0  0  0  0
   -4.4928    0.3570   -0.2976 H   0  0  0  0  0  0  0  0  0  0  0  0
   -3.4827   -0.5155    0.9052 H   0  0  0  0  0  0  0  0  0  0  0  0
   -3.8046   -1.7774   -1.1009 H   0  0  0  0  0  0  0  0  0  0  0  0
   -0.7259    2.9328    0.6338 H   0  0  0  0  0  0  0  0  0  0  0  0
  1  2  1  0
  2  3  2  0
  2  4  2  0
  2  5  1  0
  5  6  2  0
  6  7  1  0
  7  8  2  0
  8  9  1  0
  9 10  1  0
 10 11  1  0
 11 12  1  0
 12  7  1  0
 12 13  2  0
 12 14  2  0
  8 15  1  0
 15 16  2  0
 16  5  1  0
 16 17  1  0
  1 18  1  0
  1 19  1  0
  6 20  1  0
  9 21  1  0
 10 22  1  0
 10 23  1  0
 11 24  1  0
 15 25  1  0
M  END
> <ID>
HT1044

> <Class>
1.0

> <Clusters>
128

> <Fold>
2

$$$$