
     RDKit          3D

 22 23  0  0  0  0  0  0  0  0999 V2000
   -3.2586    0.1648    0.0265 O   0  0  0  0  0  0  0  0  0  0  0  0
   -1.9556   -0.1675   -0.3748 C   0  0  1  0  0  0  0  0  0  0  0  0
   -1.3114    0.9673   -1.1499 C   0  0  0  0  0  0  0  0  0  0  0  0
    0.0570    0.9871   -0.8340 O   0  0  0  0  0  0  0  0  0  0  0  0
    0.1627    0.5312    0.4972 C   0  0  2  0  0  0  0  0  0  0  0  0
    1.3276   -0.4138    0.6698 C   0  0  1  0  0  0  0  0  0  0  0  0
    0.6791   -1.7750    0.5452 C   0  0  0  0  0  0  0  0  0  0  0  0
   -0.6532   -1.6729    0.9868 O   0  0  0  0  0  0  0  0  0  0  0  0
   -1.0457   -0.3252    0.8237 C   0  0  2  0  0  0  0  0  0  0  0  0
    2.3377   -0.2368   -0.3245 O   0  0  0  0  0  0  0  0  0  0  0  0
    3.1396    0.8873   -0.3721 N   0  0  0  0  0  0  0  0  0  0  0  0
    3.0424    1.7858    0.4896 O   0  0  0  0  0  0  0  0  0  0  0  0
    4.0754    1.0065   -1.3712 O   0  0  0  0  0  0  0  0  0  0  0  0
   -3.8253    0.1082   -0.7866 H   0  0  0  0  0  0  0  0  0  0  0  0
   -1.9581   -1.0975   -0.9914 H   0  0  0  0  0  0  0  0  0  0  0  0
   -1.4410    0.8124   -2.2421 H   0  0  0  0  0  0  0  0  0  0  0  0
   -1.7629    1.9466   -0.8734 H   0  0  0  0  0  0  0  0  0  0  0  0
    0.2489    1.4009    1.1868 H   0  0  0  0  0  0  0  0  0  0  0  0
    1.7655   -0.3059    1.6877 H   0  0  0  0  0  0  0  0  0  0  0  0
    1.2229   -2.5220    1.1615 H   0  0  0  0  0  0  0  0  0  0  0  0
    0.6827   -2.1165   -0.5140 H   0  0  0  0  0  0  0  0  0  0  0  0
   -1.5299    0.0348    1.7591 H   0  0  0  0  0  0  0  0  0  0  0  0
  2  1  1  0
  2  3  1  0
  3  4  1  0
  5  4  1  0
  5  6  1  0
  6  7  1  0
  7  8  1  0
  9  8  1  0
  9  2  1  0
  9  5  1  0
  6 10  1  0
 10 11  1  0
 11 12  2  0
 11 13  1  0
  1 14  1  0
  2 15  1  6
  3 16  1  0
  3 17  1  0
  5 18  1  1
  6 19  1  1
  7 20  1  0
  7 21  1  0
  9 22  1  1
M  CHG  2  11   1  13  -1
M  END
> <ID>
HT1140

> <Class>
1.0

> <Clusters>
139

> <Fold>
2

$$$$