
     RDKit          3D

 32 32  0  0  0  0  0  0  0  0999 V2000
   -4.4088    1.4265   -1.1764 C   0  0  0  0  0  0  0  0  0  0  0  0
   -3.5637    0.3477   -0.5795 C   0  0  0  0  0  0  0  0  0  0  0  0
   -3.3988   -0.7251   -1.2190 O   0  0  0  0  0  0  0  0  0  0  0  0
   -2.9490    0.5314    0.7043 N   0  0  0  0  0  0  0  0  0  0  0  0
   -2.0954   -0.4793    1.3299 C   0  0  0  0  0  0  0  0  0  0  0  0
   -0.8179   -0.6808    0.5336 C   0  0  0  0  0  0  0  0  0  0  0  0
    0.1365    0.3637    0.4768 C   0  0  0  0  0  0  0  0  0  0  0  0
   -0.1547    2.2097    1.5208 I   0  0  0  0  0  0  0  0  0  0  0  0
    1.3100    0.2093   -0.2802 C   0  0  0  0  0  0  0  0  0  0  0  0
    2.2709    1.2701   -0.3405 N   0  0  0  0  0  0  0  0  0  0  0  0
    3.2379    1.4713    0.6980 C   0  0  0  0  0  0  0  0  0  0  0  0
    3.2457    0.7258    1.7150 O   0  0  0  0  0  0  0  0  0  0  0  0
    4.2675    2.5439    0.5593 C   0  0  0  0  0  0  0  0  0  0  0  0
    1.5400   -0.9712   -0.9987 C   0  0  0  0  0  0  0  0  0  0  0  0
    3.2969   -1.1169   -2.2067 I   0  0  0  0  0  0  0  0  0  0  0  0
    0.6148   -2.0282   -0.9316 C   0  0  0  0  0  0  0  0  0  0  0  0
    0.8816   -3.2748   -1.6745 C   0  0  0  0  0  0  0  0  0  0  0  0
    0.1310   -3.6110   -2.6280 O   0  0  0  0  0  0  0  0  0  0  0  0
    1.9587   -4.0873   -1.3321 O   0  0  0  0  0  0  0  0  0  0  0  0
   -0.5591   -1.8954   -0.1564 C   0  0  0  0  0  0  0  0  0  0  0  0
   -1.8807   -3.5836   -0.0065 I   0  0  0  0  0  0  0  0  0  0  0  0
   -3.9754    1.7417   -2.1486 H   0  0  0  0  0  0  0  0  0  0  0  0
   -5.4372    1.0435   -1.3427 H   0  0  0  0  0  0  0  0  0  0  0  0
   -4.4598    2.3096   -0.5058 H   0  0  0  0  0  0  0  0  0  0  0  0
   -3.1603    1.4005    1.2444 H   0  0  0  0  0  0  0  0  0  0  0  0
   -1.8318   -0.1588    2.3606 H   0  0  0  0  0  0  0  0  0  0  0  0
   -2.6858   -1.4031    1.4588 H   0  0  0  0  0  0  0  0  0  0  0  0
    2.3429    1.8280   -1.2209 H   0  0  0  0  0  0  0  0  0  0  0  0
    4.7841    2.7158    1.5274 H   0  0  0  0  0  0  0  0  0  0  0  0
    3.7819    3.4899    0.2405 H   0  0  0  0  0  0  0  0  0  0  0  0
    5.0150    2.2413   -0.2031 H   0  0  0  0  0  0  0  0  0  0  0  0
    2.5632   -3.8543   -0.5532 H   0  0  0  0  0  0  0  0  0  0  0  0
  1  2  1  0
  2  3  2  0
  2  4  1  0
  4  5  1  0
  5  6  1  0
  6  7  2  0
  7  8  1  0
  7  9  1  0
  9 10  1  0
 10 11  1  0
 11 12  2  0
 11 13  1  0
  9 14  2  0
 14 15  1  0
 14 16  1  0
 16 17  1  0
 17 18  2  0
 17 19  1  0
 16 20  2  0
 20  6  1  0
 20 21  1  0
  1 22  1  0
  1 23  1  0
  1 24  1  0
  4 25  1  0
  5 26  1  0
  5 27  1  0
 10 28  1  0
 13 29  1  0
 13 30  1  0
 13 31  1  0
 19 32  1  0
M  END
> <ID>
HT1102

> <Class>
1.0

> <Clusters>
73

> <Fold>
2

$$$$