
     RDKit          3D

 29 29  0  0  0  0  0  0  0  0999 V2000
    4.3111   -1.9668    0.4808 C   0  0  0  0  0  0  0  0  0  0  0  0
    3.0406   -1.3433    0.1245 N   0  0  0  0  0  0  0  0  0  0  0  0
    2.5374   -0.1607    0.7625 C   0  0  0  0  0  0  0  0  0  0  0  0
    3.2169    0.4312    1.6444 O   0  0  0  0  0  0  0  0  0  0  0  0
    1.2216    0.3819    0.3783 C   0  0  0  0  0  0  0  0  0  0  0  0
    0.0497   -0.3452    0.6652 C   0  0  0  0  0  0  0  0  0  0  0  0
    0.1383   -2.2086    1.7066 I   0  0  0  0  0  0  0  0  0  0  0  0
   -1.2028    0.1599    0.2799 C   0  0  0  0  0  0  0  0  0  0  0  0
   -2.3888   -0.5884    0.5751 N   0  0  0  0  0  0  0  0  0  0  0  0
   -3.1069   -1.2992   -0.4416 C   0  0  0  0  0  0  0  0  0  0  0  0
   -2.7133   -1.2702   -1.6394 O   0  0  0  0  0  0  0  0  0  0  0  0
   -4.3016   -2.1173   -0.0762 C   0  0  0  0  0  0  0  0  0  0  0  0
   -1.2960    1.4074   -0.3625 C   0  0  0  0  0  0  0  0  0  0  0  0
   -3.2269    2.2210   -0.7851 I   0  0  0  0  0  0  0  0  0  0  0  0
   -0.1266    2.1414   -0.6481 C   0  0  0  0  0  0  0  0  0  0  0  0
   -0.2235    3.4496   -1.3238 C   0  0  0  0  0  0  0  0  0  0  0  0
   -0.7049    3.5231   -2.4850 O   0  0  0  0  0  0  0  0  0  0  0  0
    0.2069    4.6106   -0.6878 O   0  0  0  0  0  0  0  0  0  0  0  0
    1.1350    1.6237   -0.2851 C   0  0  0  0  0  0  0  0  0  0  0  0
    2.9250    2.6624   -0.8402 I   0  0  0  0  0  0  0  0  0  0  0  0
    4.1282   -3.0114    0.8081 H   0  0  0  0  0  0  0  0  0  0  0  0
    4.9769   -1.9779   -0.4070 H   0  0  0  0  0  0  0  0  0  0  0  0
    4.8206   -1.4215    1.3022 H   0  0  0  0  0  0  0  0  0  0  0  0
    2.4776   -1.7840   -0.6375 H   0  0  0  0  0  0  0  0  0  0  0  0
   -2.6507   -0.7334    1.5761 H   0  0  0  0  0  0  0  0  0  0  0  0
   -4.9581   -1.5381    0.6063 H   0  0  0  0  0  0  0  0  0  0  0  0
   -3.9708   -3.0454    0.4345 H   0  0  0  0  0  0  0  0  0  0  0  0
   -4.8807   -2.3878   -0.9845 H   0  0  0  0  0  0  0  0  0  0  0  0
    0.5659    4.5870    0.2593 H   0  0  0  0  0  0  0  0  0  0  0  0
  1  2  1  0
  2  3  1  0
  3  4  2  0
  3  5  1  0
  5  6  2  0
  6  7  1  0
  6  8  1  0
  8  9  1  0
  9 10  1  0
 10 11  2  0
 10 12  1  0
  8 13  2  0
 13 14  1  0
 13 15  1  0
 15 16  1  0
 16 17  2  0
 16 18  1  0
 15 19  2  0
 19  5  1  0
 19 20  1  0
  1 21  1  0
  1 22  1  0
  1 23  1  0
  2 24  1  0
  9 25  1  0
 12 26  1  0
 12 27  1  0
 12 28  1  0
 18 29  1  0
M  END
> <ID>
HT1115

> <Class>
1.0

> <Clusters>
73

> <Fold>
2

$$$$