
     RDKit          3D

  9  8  0  0  0  0  0  0  0  0999 V2000
    1.5753    0.2141   -0.0450 N   0  0  0  0  0  0  0  0  0  0  0  0
    0.3131   -0.4143    0.1726 C   0  0  0  0  0  0  0  0  0  0  0  0
    0.2646   -1.6446    0.4392 O   0  0  0  0  0  0  0  0  0  0  0  0
   -0.8929    0.3479    0.0885 N   0  0  0  0  0  0  0  0  0  0  0  0
   -2.0952   -0.2366    0.3061 O   0  0  0  0  0  0  0  0  0  0  0  0
    2.4582   -0.3401    0.0157 H   0  0  0  0  0  0  0  0  0  0  0  0
    1.6296    1.2327   -0.2672 H   0  0  0  0  0  0  0  0  0  0  0  0
   -0.8517    1.3706   -0.1199 H   0  0  0  0  0  0  0  0  0  0  0  0
   -2.4011   -0.5298   -0.5901 H   0  0  0  0  0  0  0  0  0  0  0  0
  1  2  1  0
  2  3  2  0
  2  4  1  0
  4  5  1  0
  1  6  1  0
  1  7  1  0
  4  8  1  0
  5  9  1  0
M  END
> <ID>
HT1063

> <Class>
1.0

> <Clusters>
3

> <Fold>
2

$$$$