
     RDKit          3D

 31 33  0  0  0  0  0  0  0  0999 V2000
    2.2181   -3.3291   -0.7822 O   0  0  0  0  0  0  0  0  0  0  0  0
    1.9670   -1.9726   -0.5257 C   0  0  0  0  0  0  0  0  0  0  0  0
    0.5427   -1.8004   -0.2789 N   0  0  0  0  0  0  0  0  0  0  0  0
   -0.0598   -0.6589   -0.1059 C   0  0  0  0  0  0  0  0  0  0  0  0
   -1.5278   -0.6753    0.1016 C   0  0  0  0  0  0  0  0  0  0  0  0
   -2.3299   -1.4491   -0.7563 C   0  0  0  0  0  0  0  0  0  0  0  0
   -3.7181   -1.4713   -0.6022 C   0  0  0  0  0  0  0  0  0  0  0  0
   -4.3211   -0.7289    0.4136 C   0  0  0  0  0  0  0  0  0  0  0  0
   -3.5370    0.0313    1.2836 C   0  0  0  0  0  0  0  0  0  0  0  0
   -2.1442    0.0618    1.1397 C   0  0  0  0  0  0  0  0  0  0  0  0
   -1.2109    0.9776    2.3199 Cl  0  0  0  0  0  0  0  0  0  0  0  0
    0.6660    0.6419   -0.2131 C   0  0  0  0  0  0  0  0  0  0  0  0
    0.0403    1.7023   -0.8975 C   0  0  0  0  0  0  0  0  0  0  0  0
    0.6352    2.9639   -0.9616 C   0  0  0  0  0  0  0  0  0  0  0  0
   -0.1665    4.2697   -1.8157 Cl  0  0  0  0  0  0  0  0  0  0  0  0
    1.8607    3.1888   -0.3367 C   0  0  0  0  0  0  0  0  0  0  0  0
    2.4987    2.1515    0.3431 C   0  0  0  0  0  0  0  0  0  0  0  0
    1.9278    0.8701    0.3999 C   0  0  0  0  0  0  0  0  0  0  0  0
    2.6291   -0.1532    1.1270 N   0  0  0  0  0  0  0  0  0  0  0  0
    2.7232   -1.5119    0.6861 C   0  0  0  0  0  0  0  0  0  0  0  0
    3.4446   -2.3217    1.3293 O   0  0  0  0  0  0  0  0  0  0  0  0
    3.1102   -3.3784   -1.2160 H   0  0  0  0  0  0  0  0  0  0  0  0
    2.2647   -1.3636   -1.4113 H   0  0  0  0  0  0  0  0  0  0  0  0
   -1.8809   -2.0239   -1.5573 H   0  0  0  0  0  0  0  0  0  0  0  0
   -4.3271   -2.0634   -1.2730 H   0  0  0  0  0  0  0  0  0  0  0  0
   -5.3968   -0.7484    0.5320 H   0  0  0  0  0  0  0  0  0  0  0  0
   -4.0138    0.5904    2.0787 H   0  0  0  0  0  0  0  0  0  0  0  0
   -0.9175    1.5507   -1.3805 H   0  0  0  0  0  0  0  0  0  0  0  0
    2.3213    4.1677   -0.3769 H   0  0  0  0  0  0  0  0  0  0  0  0
    3.4514    2.3431    0.8211 H   0  0  0  0  0  0  0  0  0  0  0  0
    3.2505    0.1389    1.9154 H   0  0  0  0  0  0  0  0  0  0  0  0
  1  2  1  0
  2  3  1  0
  3  4  2  0
  4  5  1  0
  5  6  2  0
  6  7  1  0
  7  8  2  0
  8  9  1  0
  9 10  2  0
 10  5  1  0
 10 11  1  0
  4 12  1  0
 12 13  2  0
 13 14  1  0
 14 15  1  0
 14 16  2  0
 16 17  1  0
 17 18  2  0
 18 12  1  0
 18 19  1  0
 19 20  1  0
 20  2  1  0
 20 21  2  0
  1 22  1  0
  2 23  1  0
  6 24  1  0
  7 25  1  0
  8 26  1  0
  9 27  1  0
 13 28  1  0
 16 29  1  0
 17 30  1  0
 19 31  1  0
M  END
> <ID>
HT1238

> <Class>
1.0

> <Clusters>
185

> <Fold>
2

$$$$