
     RDKit          3D

 30 31  0  0  0  0  0  0  0  0999 V2000
    3.7429    0.5684   -1.7214 C   0  0  0  0  0  0  0  0  0  0  0  0
    2.9491   -0.0349   -0.5918 C   0  0  0  0  0  0  0  0  0  0  0  0
    3.5800   -0.9994    0.2069 C   0  0  0  0  0  0  0  0  0  0  0  0
    2.9068   -1.5901    1.2741 C   0  0  0  0  0  0  0  0  0  0  0  0
    1.5877   -1.2357    1.5579 C   0  0  0  0  0  0  0  0  0  0  0  0
    0.7681   -2.0325    2.8951 Cl  0  0  0  0  0  0  0  0  0  0  0  0
    0.9256   -0.2832    0.7625 C   0  0  0  0  0  0  0  0  0  0  0  0
   -0.4364    0.0655    1.0623 N   0  0  0  0  0  0  0  0  0  0  0  0
   -1.5108   -0.0796    0.1147 C   0  0  0  0  0  0  0  0  0  0  0  0
   -1.4499   -1.0964   -0.8576 C   0  0  0  0  0  0  0  0  0  0  0  0
   -2.5165   -1.3112   -1.7306 C   0  0  0  0  0  0  0  0  0  0  0  0
   -3.6613   -0.5225   -1.6414 C   0  0  0  0  0  0  0  0  0  0  0  0
   -3.7391    0.4935   -0.6877 C   0  0  0  0  0  0  0  0  0  0  0  0
   -2.6672    0.7387    0.1917 C   0  0  0  0  0  0  0  0  0  0  0  0
   -2.7642    1.8782    1.1353 C   0  0  0  0  0  0  0  0  0  0  0  0
   -3.8940    2.2961    1.5079 O   0  0  0  0  0  0  0  0  0  0  0  0
   -1.6179    2.5270    1.5863 O   0  0  0  0  0  0  0  0  0  0  0  0
    1.6125    0.3355   -0.3077 C   0  0  0  0  0  0  0  0  0  0  0  0
    0.8105    1.6136   -1.2289 Cl  0  0  0  0  0  0  0  0  0  0  0  0
    3.1688    1.3013   -2.3201 H   0  0  0  0  0  0  0  0  0  0  0  0
    4.6363    1.0844   -1.3109 H   0  0  0  0  0  0  0  0  0  0  0  0
    4.0798   -0.2373   -2.4073 H   0  0  0  0  0  0  0  0  0  0  0  0
    4.6030   -1.2925    0.0035 H   0  0  0  0  0  0  0  0  0  0  0  0
    3.4129   -2.3313    1.8797 H   0  0  0  0  0  0  0  0  0  0  0  0
   -0.6814    0.2602    2.0590 H   0  0  0  0  0  0  0  0  0  0  0  0
   -0.5840   -1.7423   -0.9253 H   0  0  0  0  0  0  0  0  0  0  0  0
   -2.4595   -2.0993   -2.4704 H   0  0  0  0  0  0  0  0  0  0  0  0
   -4.4893   -0.6942   -2.3171 H   0  0  0  0  0  0  0  0  0  0  0  0
   -4.6322    1.1054   -0.6536 H   0  0  0  0  0  0  0  0  0  0  0  0
   -1.6806    3.3143    2.2206 H   0  0  0  0  0  0  0  0  0  0  0  0
  1  2  1  0
  2  3  2  0
  3  4  1  0
  4  5  2  0
  5  6  1  0
  5  7  1  0
  7  8  1  0
  8  9  1  0
  9 10  2  0
 10 11  1  0
 11 12  2  0
 12 13  1  0
 13 14  2  0
 14  9  1  0
 14 15  1  0
 15 16  2  0
 15 17  1  0
  7 18  2  0
 18  2  1  0
 18 19  1  0
  1 20  1  0
  1 21  1  0
  1 22  1  0
  3 23  1  0
  4 24  1  0
  8 25  1  0
 10 26  1  0
 11 27  1  0
 12 28  1  0
 13 29  1  0
 17 30  1  0
M  END
> <ID>
HT1284

> <Class>
1.0

> <Clusters>
153

> <Fold>
2

$$$$