
     RDKit          3D

 47 49  0  0  0  0  0  0  0  0999 V2000
   -3.5237   -4.1707    0.1528 C   0  0  0  0  0  0  0  0  0  0  0  0
   -2.4874   -3.2273    0.4041 O   0  0  0  0  0  0  0  0  0  0  0  0
   -2.4690   -1.9178   -0.0987 C   0  0  0  0  0  0  0  0  0  0  0  0
   -3.5026   -1.4054   -0.9061 C   0  0  0  0  0  0  0  0  0  0  0  0
   -3.4361   -0.0961   -1.3885 C   0  0  0  0  0  0  0  0  0  0  0  0
   -2.3380    0.7097   -1.0788 C   0  0  0  0  0  0  0  0  0  0  0  0
   -2.1824    2.3421   -1.8111 S   0  0  0  0  0  0  0  0  0  0  0  0
   -1.6700    3.1047   -0.2690 C   0  0  0  0  0  0  0  0  0  0  0  0
   -2.2118    4.3335    0.1218 C   0  0  0  0  0  0  0  0  0  0  0  0
   -1.7515    4.9619    1.2818 C   0  0  0  0  0  0  0  0  0  0  0  0
   -0.7590    4.3582    2.0586 C   0  0  0  0  0  0  0  0  0  0  0  0
   -0.2322    3.1175    1.6859 C   0  0  0  0  0  0  0  0  0  0  0  0
   -0.6804    2.4809    0.5145 C   0  0  0  0  0  0  0  0  0  0  0  0
   -0.2773    1.1306    0.1971 N   0  0  0  0  0  0  0  0  0  0  0  0
    1.1054    0.6767    0.4274 C   0  0  0  0  0  0  0  0  0  0  0  0
    1.7052    0.0127   -0.8344 C   0  0  0  0  0  0  0  0  0  0  0  0
    1.8117    1.0286   -1.9815 C   0  0  0  0  0  0  0  0  0  0  0  0
    3.0957   -0.5894   -0.5342 C   0  0  0  0  0  0  0  0  0  0  0  0
    3.0268   -1.6112    0.5360 N   0  0  0  0  0  0  0  0  0  0  0  0
    2.5924   -2.9152    0.0036 C   0  0  0  0  0  0  0  0  0  0  0  0
    4.3413   -1.7607    1.1809 C   0  0  0  0  0  0  0  0  0  0  0  0
   -1.3099    0.2229   -0.2519 C   0  0  0  0  0  0  0  0  0  0  0  0
   -1.3832   -1.0965    0.2289 C   0  0  0  0  0  0  0  0  0  0  0  0
   -4.4902   -3.7897    0.5452 H   0  0  0  0  0  0  0  0  0  0  0  0
   -3.2810   -5.1220    0.6689 H   0  0  0  0  0  0  0  0  0  0  0  0
   -3.6046   -4.3676   -0.9371 H   0  0  0  0  0  0  0  0  0  0  0  0
   -4.3569   -2.0126   -1.1722 H   0  0  0  0  0  0  0  0  0  0  0  0
   -4.2251    0.2809   -2.0268 H   0  0  0  0  0  0  0  0  0  0  0  0
   -2.9715    4.8121   -0.4829 H   0  0  0  0  0  0  0  0  0  0  0  0
   -2.1640    5.9174    1.5789 H   0  0  0  0  0  0  0  0  0  0  0  0
   -0.4133    4.8418    2.9632 H   0  0  0  0  0  0  0  0  0  0  0  0
    0.4901    2.6392    2.3343 H   0  0  0  0  0  0  0  0  0  0  0  0
    1.1163   -0.0244    1.2876 H   0  0  0  0  0  0  0  0  0  0  0  0
    1.7558    1.5344    0.7063 H   0  0  0  0  0  0  0  0  0  0  0  0
    1.0350   -0.8001   -1.1802 H   0  0  0  0  0  0  0  0  0  0  0  0
    2.4617    1.8822   -1.6924 H   0  0  0  0  0  0  0  0  0  0  0  0
    2.2383    0.5434   -2.8851 H   0  0  0  0  0  0  0  0  0  0  0  0
    0.8074    1.4187   -2.2491 H   0  0  0  0  0  0  0  0  0  0  0  0
    3.7638    0.2492   -0.2291 H   0  0  0  0  0  0  0  0  0  0  0  0
    3.5330   -1.0215   -1.4637 H   0  0  0  0  0  0  0  0  0  0  0  0
    2.5423   -3.6655    0.8221 H   0  0  0  0  0  0  0  0  0  0  0  0
    3.2894   -3.2864   -0.7806 H   0  0  0  0  0  0  0  0  0  0  0  0
    1.5705   -2.8452   -0.4210 H   0  0  0  0  0  0  0  0  0  0  0  0
    5.1211   -2.0522    0.4419 H   0  0  0  0  0  0  0  0  0  0  0  0
    4.6386   -0.8065    1.6668 H   0  0  0  0  0  0  0  0  0  0  0  0
    4.2941   -2.5290    1.9827 H   0  0  0  0  0  0  0  0  0  0  0  0
   -0.6151   -1.4862    0.8830 H   0  0  0  0  0  0  0  0  0  0  0  0
  1  2  1  0
  2  3  1  0
  3  4  2  0
  4  5  1  0
  5  6  2  0
  6  7  1  0
  7  8  1  0
  8  9  2  0
  9 10  1  0
 10 11  2  0
 11 12  1  0
 12 13  2  0
 13  8  1  0
 13 14  1  0
 14 15  1  0
 15 16  1  0
 16 17  1  0
 16 18  1  0
 18 19  1  0
 19 20  1  0
 19 21  1  0
 14 22  1  0
 22  6  1  0
 22 23  2  0
 23  3  1  0
  1 24  1  0
  1 25  1  0
  1 26  1  0
  4 27  1  0
  5 28  1  0
  9 29  1  0
 10 30  1  0
 11 31  1  0
 12 32  1  0
 15 33  1  0
 15 34  1  0
 16 35  1  0
 17 36  1  0
 17 37  1  0
 17 38  1  0
 18 39  1  0
 18 40  1  0
 20 41  1  0
 20 42  1  0
 20 43  1  0
 21 44  1  0
 21 45  1  0
 21 46  1  0
 23 47  1  0
M  END
> <ID>
HT1348

> <Class>
1.0

> <Clusters>
206

> <Fold>
2

$$$$