
     RDKit          3D

 43 44  0  0  0  0  0  0  0  0999 V2000
   -2.0729   -2.8388   -0.2541 C   0  0  0  0  0  0  0  0  0  0  0  0
   -1.4025   -1.6256   -0.5744 O   0  0  0  0  0  0  0  0  0  0  0  0
   -1.7291   -0.4193    0.0522 C   0  0  0  0  0  0  0  0  0  0  0  0
   -2.8585    0.3217   -0.3760 C   0  0  0  0  0  0  0  0  0  0  0  0
   -3.7375   -0.1631   -1.4976 C   0  0  0  0  0  0  0  0  0  0  0  0
   -3.1656    1.5091    0.3013 C   0  0  0  0  0  0  0  0  0  0  0  0
   -4.3192    2.4466    0.0638 C   0  0  0  0  0  0  0  0  0  0  0  0
   -4.1175    3.4726    1.0365 O   0  0  0  0  0  0  0  0  0  0  0  0
   -2.9770    3.2085    1.7787 C   0  0  0  0  0  0  0  0  0  0  0  0
   -2.5631    3.9495    2.7075 O   0  0  0  0  0  0  0  0  0  0  0  0
   -2.3705    1.9740    1.3243 C   0  0  0  0  0  0  0  0  0  0  0  0
   -1.2225    1.2885    1.7420 C   0  0  0  0  0  0  0  0  0  0  0  0
   -0.3986    1.7840    2.7547 O   0  0  0  0  0  0  0  0  0  0  0  0
   -0.9062    0.0651    1.1054 C   0  0  0  0  0  0  0  0  0  0  0  0
    0.3381   -0.6942    1.5036 C   0  0  0  0  0  0  0  0  0  0  0  0
    1.5020   -0.2462    0.6535 C   0  0  0  0  0  0  0  0  0  0  0  0
    2.2860   -1.0660   -0.0842 C   0  0  0  0  0  0  0  0  0  0  0  0
    2.0701   -2.5600   -0.1233 C   0  0  0  0  0  0  0  0  0  0  0  0
    3.4180   -0.4666   -0.8908 C   0  0  0  0  0  0  0  0  0  0  0  0
    4.6026   -0.1076    0.0131 C   0  0  0  0  0  0  0  0  0  0  0  0
    5.7235    0.4893   -0.7864 C   0  0  0  0  0  0  0  0  0  0  0  0
    6.3234   -0.2103   -1.6448 O   0  0  0  0  0  0  0  0  0  0  0  0
    6.1188    1.8091   -0.5855 O   0  0  0  0  0  0  0  0  0  0  0  0
   -1.6440   -3.6622   -0.8608 H   0  0  0  0  0  0  0  0  0  0  0  0
   -3.1564   -2.7556   -0.4765 H   0  0  0  0  0  0  0  0  0  0  0  0
   -1.9354   -3.0756    0.8219 H   0  0  0  0  0  0  0  0  0  0  0  0
   -4.1321    0.6909   -2.0863 H   0  0  0  0  0  0  0  0  0  0  0  0
   -4.5905   -0.7359   -1.0781 H   0  0  0  0  0  0  0  0  0  0  0  0
   -3.1724   -0.8096   -2.2009 H   0  0  0  0  0  0  0  0  0  0  0  0
   -5.2878    1.9339    0.2419 H   0  0  0  0  0  0  0  0  0  0  0  0
   -4.2758    2.8796   -0.9576 H   0  0  0  0  0  0  0  0  0  0  0  0
   -0.5760    2.6573    3.2309 H   0  0  0  0  0  0  0  0  0  0  0  0
    0.1512   -1.7842    1.4417 H   0  0  0  0  0  0  0  0  0  0  0  0
    0.5879   -0.4982    2.5675 H   0  0  0  0  0  0  0  0  0  0  0  0
    1.7196    0.8195    0.6561 H   0  0  0  0  0  0  0  0  0  0  0  0
    2.8377   -3.0646   -0.7462 H   0  0  0  0  0  0  0  0  0  0  0  0
    1.0743   -2.7897   -0.5548 H   0  0  0  0  0  0  0  0  0  0  0  0
    2.1415   -2.9801    0.9021 H   0  0  0  0  0  0  0  0  0  0  0  0
    3.7555   -1.1841   -1.6700 H   0  0  0  0  0  0  0  0  0  0  0  0
    3.0567    0.4419   -1.4223 H   0  0  0  0  0  0  0  0  0  0  0  0
    4.9737   -1.0202    0.5281 H   0  0  0  0  0  0  0  0  0  0  0  0
    4.2731    0.6153    0.7902 H   0  0  0  0  0  0  0  0  0  0  0  0
    5.6576    2.4012    0.0947 H   0  0  0  0  0  0  0  0  0  0  0  0
  1  2  1  0
  2  3  1  0
  3  4  2  0
  4  5  1  0
  4  6  1  0
  6  7  1  0
  7  8  1  0
  8  9  1  0
  9 10  2  0
  9 11  1  0
 11  6  2  0
 11 12  1  0
 12 13  1  0
 12 14  2  0
 14  3  1  0
 14 15  1  0
 15 16  1  0
 16 17  2  3
 17 18  1  0
 17 19  1  0
 19 20  1  0
 20 21  1  0
 21 22  2  0
 21 23  1  0
  1 24  1  0
  1 25  1  0
  1 26  1  0
  5 27  1  0
  5 28  1  0
  5 29  1  0
  7 30  1  0
  7 31  1  0
 13 32  1  0
 15 33  1  0
 15 34  1  0
 16 35  1  0
 18 36  1  0
 18 37  1  0
 18 38  1  0
 19 39  1  0
 19 40  1  0
 20 41  1  0
 20 42  1  0
 23 43  1  0
M  END
> <ID>
HT1443

> <Class>
1.0

> <Clusters>
173

> <Fold>
2

$$$$