
     RDKit          3D

 42 42  0  0  0  0  0  0  0  0999 V2000
    4.2641    1.8092    1.7692 C   0  0  0  0  0  0  0  0  0  0  0  0
    4.1857    1.6603    0.2422 C   0  0  0  0  0  0  0  0  0  0  0  0
    3.4718    0.4410   -0.2012 N   0  0  0  0  0  0  0  0  0  0  0  0
    4.2530   -0.7993    0.0214 C   0  0  0  0  0  0  0  0  0  0  0  0
    4.6193   -1.4156   -1.3224 C   0  0  0  0  0  0  0  0  0  0  0  0
    2.0881    0.3683    0.3161 C   0  0  0  0  0  0  0  0  0  0  0  0
    1.2109   -0.4956   -0.5973 C   0  0  0  0  0  0  0  0  0  0  0  0
   -0.1834   -0.4722   -0.1564 N   0  0  0  0  0  0  0  0  0  0  0  0
   -1.2037   -1.1851   -0.8705 C   0  0  0  0  0  0  0  0  0  0  0  0
   -0.8801   -1.9943   -1.7827 O   0  0  0  0  0  0  0  0  0  0  0  0
   -2.6338   -1.0138   -0.5263 C   0  0  0  0  0  0  0  0  0  0  0  0
   -3.4786   -2.1348   -0.5466 C   0  0  0  0  0  0  0  0  0  0  0  0
   -4.8314   -2.0208   -0.2148 C   0  0  0  0  0  0  0  0  0  0  0  0
   -5.8245   -3.4733   -0.2477 Cl  0  0  0  0  0  0  0  0  0  0  0  0
   -5.3636   -0.7673    0.1378 C   0  0  0  0  0  0  0  0  0  0  0  0
   -6.7455   -0.6171    0.4879 N   0  0  0  0  0  0  0  0  0  0  0  0
   -4.5287    0.3587    0.1399 C   0  0  0  0  0  0  0  0  0  0  0  0
   -3.1662    0.2519   -0.2017 C   0  0  0  0  0  0  0  0  0  0  0  0
   -2.3312    1.3811   -0.2530 O   0  0  0  0  0  0  0  0  0  0  0  0
   -2.7411    2.7094    0.0546 C   0  0  0  0  0  0  0  0  0  0  0  0
    4.9063    2.6797    2.0191 H   0  0  0  0  0  0  0  0  0  0  0  0
    3.2575    1.9937    2.1985 H   0  0  0  0  0  0  0  0  0  0  0  0
    4.7015    0.9067    2.2424 H   0  0  0  0  0  0  0  0  0  0  0  0
    3.6786    2.5553   -0.1792 H   0  0  0  0  0  0  0  0  0  0  0  0
    5.2161    1.6631   -0.1771 H   0  0  0  0  0  0  0  0  0  0  0  0
    3.6872   -1.5510    0.6157 H   0  0  0  0  0  0  0  0  0  0  0  0
    5.1993   -0.6085    0.5739 H   0  0  0  0  0  0  0  0  0  0  0  0
    3.7023   -1.6631   -1.8971 H   0  0  0  0  0  0  0  0  0  0  0  0
    5.2029   -2.3466   -1.1618 H   0  0  0  0  0  0  0  0  0  0  0  0
    5.2353   -0.7033   -1.9112 H   0  0  0  0  0  0  0  0  0  0  0  0
    2.0717   -0.0376    1.3528 H   0  0  0  0  0  0  0  0  0  0  0  0
    1.6376    1.3864    0.3429 H   0  0  0  0  0  0  0  0  0  0  0  0
    1.2719   -0.1044   -1.6361 H   0  0  0  0  0  0  0  0  0  0  0  0
    1.5740   -1.5451   -0.5885 H   0  0  0  0  0  0  0  0  0  0  0  0
   -0.4405    0.0388    0.7187 H   0  0  0  0  0  0  0  0  0  0  0  0
   -3.0801   -3.1087   -0.8054 H   0  0  0  0  0  0  0  0  0  0  0  0
   -7.1290    0.3198    0.7451 H   0  0  0  0  0  0  0  0  0  0  0  0
   -7.4043   -1.4259    0.4988 H   0  0  0  0  0  0  0  0  0  0  0  0
   -4.9539    1.3187    0.3993 H   0  0  0  0  0  0  0  0  0  0  0  0
   -3.0963    2.7657    1.1052 H   0  0  0  0  0  0  0  0  0  0  0  0
   -1.8745    3.3916   -0.0636 H   0  0  0  0  0  0  0  0  0  0  0  0
   -3.5446    3.0321   -0.6406 H   0  0  0  0  0  0  0  0  0  0  0  0
  1  2  1  0
  2  3  1  0
  3  4  1  0
  4  5  1  0
  3  6  1  0
  6  7  1  0
  7  8  1  0
  8  9  1  0
  9 10  2  0
  9 11  1  0
 11 12  2  0
 12 13  1  0
 13 14  1  0
 13 15  2  0
 15 16  1  0
 15 17  1  0
 17 18  2  0
 18 11  1  0
 18 19  1  0
 19 20  1  0
  1 21  1  0
  1 22  1  0
  1 23  1  0
  2 24  1  0
  2 25  1  0
  4 26  1  0
  4 27  1  0
  5 28  1  0
  5 29  1  0
  5 30  1  0
  6 31  1  0
  6 32  1  0
  7 33  1  0
  7 34  1  0
  8 35  1  0
 12 36  1  0
 16 37  1  0
 16 38  1  0
 17 39  1  0
 20 40  1  0
 20 41  1  0
 20 42  1  0
M  END
> <ID>
HT1376

> <Class>
1.0

> <Clusters>
207

> <Fold>
2

$$$$