
     RDKit          3D

 37 38  0  0  0  0  0  0  0  0999 V2000
   -2.6278   -3.0510   -1.1290 C   0  0  0  0  0  0  0  0  0  0  0  0
   -2.7819   -1.7575   -0.4401 N   0  0  0  0  0  0  0  0  0  0  0  0
   -3.5553   -1.9547    0.7966 C   0  0  0  0  0  0  0  0  0  0  0  0
   -1.4647   -1.1629   -0.1245 C   0  0  0  0  0  0  0  0  0  0  0  0
   -0.8830   -0.4415   -1.3460 C   0  0  0  0  0  0  0  0  0  0  0  0
    0.3540    0.2683   -0.9817 N   0  0  0  0  0  0  0  0  0  0  0  0
    1.5963   -0.5161   -0.8609 C   0  0  0  0  0  0  0  0  0  0  0  0
    2.1492   -0.4800    0.5362 C   0  0  0  0  0  0  0  0  0  0  0  0
    3.4396   -0.8505    0.8906 C   0  0  0  0  0  0  0  0  0  0  0  0
    3.6838   -0.7641    2.2666 C   0  0  0  0  0  0  0  0  0  0  0  0
    2.5865   -0.3375    3.0026 C   0  0  0  0  0  0  0  0  0  0  0  0
    1.3123   -0.0707    1.9401 S   0  0  0  0  0  0  0  0  0  0  0  0
    0.3328    1.7054   -0.7821 C   0  0  0  0  0  0  0  0  0  0  0  0
    1.5176    2.4692   -0.7520 C   0  0  0  0  0  0  0  0  0  0  0  0
    1.4465    3.8466   -0.5345 C   0  0  0  0  0  0  0  0  0  0  0  0
    0.2084    4.4596   -0.3490 C   0  0  0  0  0  0  0  0  0  0  0  0
   -0.9479    3.6811   -0.3824 C   0  0  0  0  0  0  0  0  0  0  0  0
   -0.8600    2.3412   -0.5933 N   0  0  0  0  0  0  0  0  0  0  0  0
   -3.6257   -3.4831   -1.3596 H   0  0  0  0  0  0  0  0  0  0  0  0
   -2.1091   -2.9181   -2.0997 H   0  0  0  0  0  0  0  0  0  0  0  0
   -2.0572   -3.7773   -0.5077 H   0  0  0  0  0  0  0  0  0  0  0  0
   -3.7529   -0.9763    1.2848 H   0  0  0  0  0  0  0  0  0  0  0  0
   -4.5450   -2.4054    0.5663 H   0  0  0  0  0  0  0  0  0  0  0  0
   -3.0118   -2.6138    1.5107 H   0  0  0  0  0  0  0  0  0  0  0  0
   -0.7506   -1.9340    0.2451 H   0  0  0  0  0  0  0  0  0  0  0  0
   -1.5695   -0.3996    0.6801 H   0  0  0  0  0  0  0  0  0  0  0  0
   -1.6421    0.2631   -1.7492 H   0  0  0  0  0  0  0  0  0  0  0  0
   -0.6647   -1.1618   -2.1616 H   0  0  0  0  0  0  0  0  0  0  0  0
    1.4219   -1.5807   -1.1301 H   0  0  0  0  0  0  0  0  0  0  0  0
    2.3498   -0.1322   -1.5800 H   0  0  0  0  0  0  0  0  0  0  0  0
    4.1851   -1.1740    0.1761 H   0  0  0  0  0  0  0  0  0  0  0  0
    4.6369   -1.0109    2.7155 H   0  0  0  0  0  0  0  0  0  0  0  0
    2.5577   -0.2072    4.0761 H   0  0  0  0  0  0  0  0  0  0  0  0
    2.4900    2.0203   -0.8932 H   0  0  0  0  0  0  0  0  0  0  0  0
    2.3520    4.4387   -0.5104 H   0  0  0  0  0  0  0  0  0  0  0  0
    0.1453    5.5268   -0.1805 H   0  0  0  0  0  0  0  0  0  0  0  0
   -1.9168    4.1407   -0.2401 H   0  0  0  0  0  0  0  0  0  0  0  0
  1  2  1  0
  2  3  1  0
  2  4  1  0
  4  5  1  0
  5  6  1  0
  6  7  1  0
  7  8  1  0
  8  9  2  0
  9 10  1  0
 10 11  2  0
 11 12  1  0
 12  8  1  0
  6 13  1  0
 13 14  2  0
 14 15  1  0
 15 16  2  0
 16 17  1  0
 17 18  2  0
 18 13  1  0
  1 19  1  0
  1 20  1  0
  1 21  1  0
  3 22  1  0
  3 23  1  0
  3 24  1  0
  4 25  1  0
  4 26  1  0
  5 27  1  0
  5 28  1  0
  7 29  1  0
  7 30  1  0
  9 31  1  0
 10 32  1  0
 11 33  1  0
 14 34  1  0
 15 35  1  0
 16 36  1  0
 17 37  1  0
M  END
> <ID>
HT1336

> <Class>
1.0

> <Clusters>
51

> <Fold>
2

$$$$