
     RDKit          3D

 30 31  0  0  0  0  0  0  0  0999 V2000
    2.6292    1.7813   -0.8189 C   0  0  0  0  0  0  0  0  0  0  0  0
    1.4475    0.9143   -0.4697 C   0  0  0  0  0  0  0  0  0  0  0  0
    0.1596    1.4757   -0.4979 C   0  0  0  0  0  0  0  0  0  0  0  0
   -0.9746    0.7096   -0.1892 C   0  0  0  0  0  0  0  0  0  0  0  0
   -2.3308    1.3843   -0.1747 C   0  0  0  0  0  0  0  0  0  0  0  0
   -3.4789    0.4437   -0.5646 C   0  0  0  0  0  0  0  0  0  0  0  0
   -3.6732   -0.6591    0.4727 C   0  0  0  0  0  0  0  0  0  0  0  0
   -2.1938   -1.6411    0.5943 S   0  0  0  0  0  0  0  0  0  0  0  0
   -2.2802   -2.7891   -0.3716 O   0  0  0  0  0  0  0  0  0  0  0  0
   -2.0562   -2.1647    1.9961 O   0  0  0  0  0  0  0  0  0  0  0  0
   -0.8074   -0.6364    0.1907 C   0  0  0  0  0  0  0  0  0  0  0  0
    0.4710   -1.2025    0.2204 C   0  0  0  0  0  0  0  0  0  0  0  0
    1.6039   -0.4448   -0.1096 C   0  0  0  0  0  0  0  0  0  0  0  0
    3.1979   -1.2172   -0.0464 S   0  0  0  0  0  0  0  0  0  0  0  0
    3.0573   -2.6745    0.2965 O   0  0  0  0  0  0  0  0  0  0  0  0
    3.8710   -1.1048   -1.3851 O   0  0  0  0  0  0  0  0  0  0  0  0
    4.1690   -0.4523    1.1624 N   0  0  0  0  0  0  0  0  0  0  0  0
    3.1526    1.3709   -1.7064 H   0  0  0  0  0  0  0  0  0  0  0  0
    2.3196    2.8200   -1.0621 H   0  0  0  0  0  0  0  0  0  0  0  0
    3.3306    1.8320    0.0386 H   0  0  0  0  0  0  0  0  0  0  0  0
    0.0365    2.5201   -0.7600 H   0  0  0  0  0  0  0  0  0  0  0  0
   -2.5144    1.8029    0.8384 H   0  0  0  0  0  0  0  0  0  0  0  0
   -2.3341    2.2348   -0.8912 H   0  0  0  0  0  0  0  0  0  0  0  0
   -3.2815   -0.0031   -1.5640 H   0  0  0  0  0  0  0  0  0  0  0  0
   -4.4182    1.0333   -0.6360 H   0  0  0  0  0  0  0  0  0  0  0  0
   -4.5231   -1.3093    0.1758 H   0  0  0  0  0  0  0  0  0  0  0  0
   -3.9021   -0.2110    1.4634 H   0  0  0  0  0  0  0  0  0  0  0  0
    0.5770   -2.2415    0.5045 H   0  0  0  0  0  0  0  0  0  0  0  0
    3.6804   -0.5860    2.0759 H   0  0  0  0  0  0  0  0  0  0  0  0
    5.0656   -0.9854    1.2177 H   0  0  0  0  0  0  0  0  0  0  0  0
  1  2  1  0
  2  3  2  0
  3  4  1  0
  4  5  1  0
  5  6  1  0
  6  7  1  0
  7  8  1  0
  8  9  2  0
  8 10  2  0
  8 11  1  0
 11  4  2  0
 11 12  1  0
 12 13  2  0
 13  2  1  0
 13 14  1  0
 14 15  2  0
 14 16  2  0
 14 17  1  0
  1 18  1  0
  1 19  1  0
  1 20  1  0
  3 21  1  0
  5 22  1  0
  5 23  1  0
  6 24  1  0
  6 25  1  0
  7 26  1  0
  7 27  1  0
 12 28  1  0
 17 29  1  0
 17 30  1  0
M  END
> <ID>
HT1373

> <Class>
1.0

> <Clusters>
128

> <Fold>
2

$$$$