
     RDKit          3D

 62 64  0  0  0  0  0  0  0  0999 V2000
   -5.1716   -3.3151    0.7545 C   0  0  0  0  0  0  0  0  0  0  0  0
   -4.6206   -2.4200   -0.2072 O   0  0  0  0  0  0  0  0  0  0  0  0
   -4.9059   -1.0483   -0.2207 C   0  0  0  0  0  0  0  0  0  0  0  0
   -6.2336   -0.5870   -0.4295 C   0  0  0  0  0  0  0  0  0  0  0  0
   -7.3673   -1.5407   -0.6967 C   0  0  0  0  0  0  0  0  0  0  0  0
   -6.4719    0.7913   -0.3549 C   0  0  0  0  0  0  0  0  0  0  0  0
   -7.7767    1.5336   -0.4850 C   0  0  0  0  0  0  0  0  0  0  0  0
   -7.4023    2.9007   -0.2927 O   0  0  0  0  0  0  0  0  0  0  0  0
   -6.0354    2.9919   -0.0796 C   0  0  0  0  0  0  0  0  0  0  0  0
   -5.4200    4.0737    0.1121 O   0  0  0  0  0  0  0  0  0  0  0  0
   -5.4485    1.6749   -0.1183 C   0  0  0  0  0  0  0  0  0  0  0  0
   -4.1287    1.2672    0.0536 C   0  0  0  0  0  0  0  0  0  0  0  0
   -3.1507    2.2295    0.3189 O   0  0  0  0  0  0  0  0  0  0  0  0
   -3.8415   -0.1213   -0.0326 C   0  0  0  0  0  0  0  0  0  0  0  0
   -2.4277   -0.6291    0.1464 C   0  0  0  0  0  0  0  0  0  0  0  0
   -2.0645   -0.6956    1.6099 C   0  0  0  0  0  0  0  0  0  0  0  0
   -0.8233   -0.9806    2.0624 C   0  0  0  0  0  0  0  0  0  0  0  0
   -0.5928   -1.0224    3.5505 C   0  0  0  0  0  0  0  0  0  0  0  0
    0.3547   -1.1988    1.1335 C   0  0  0  0  0  0  0  0  0  0  0  0
    1.0710    0.1293    0.8488 C   0  0  0  0  0  0  0  0  0  0  0  0
    2.2296   -0.0146   -0.0957 C   0  0  0  0  0  0  0  0  0  0  0  0
    2.5316   -1.1382   -0.5870 O   0  0  0  0  0  0  0  0  0  0  0  0
    2.9651    1.1277   -0.4314 O   0  0  0  0  0  0  0  0  0  0  0  0
    4.1169    1.1034   -1.2725 C   0  0  0  0  0  0  0  0  0  0  0  0
    5.3290    0.5630   -0.5092 C   0  0  0  0  0  0  0  0  0  0  0  0
    6.5277    0.5888   -1.3788 N   0  0  0  0  0  0  0  0  0  0  0  0
    7.4381   -0.5404   -1.1060 C   0  0  0  0  0  0  0  0  0  0  0  0
    8.1482   -0.3853    0.2600 C   0  0  0  0  0  0  0  0  0  0  0  0
    8.0794    0.9326    0.7774 O   0  0  0  0  0  0  0  0  0  0  0  0
    8.3702    1.8682   -0.2387 C   0  0  0  0  0  0  0  0  0  0  0  0
    7.2542    1.8795   -1.3041 C   0  0  0  0  0  0  0  0  0  0  0  0
   -5.7984   -2.7776    1.4982 H   0  0  0  0  0  0  0  0  0  0  0  0
   -5.7858   -4.0806    0.2380 H   0  0  0  0  0  0  0  0  0  0  0  0
   -4.3445   -3.8218    1.2927 H   0  0  0  0  0  0  0  0  0  0  0  0
   -8.1597   -1.0596   -1.3069 H   0  0  0  0  0  0  0  0  0  0  0  0
   -7.0121   -2.4244   -1.2672 H   0  0  0  0  0  0  0  0  0  0  0  0
   -7.8099   -1.8736    0.2650 H   0  0  0  0  0  0  0  0  0  0  0  0
   -8.2108    1.3988   -1.4979 H   0  0  0  0  0  0  0  0  0  0  0  0
   -8.4910    1.2171    0.3037 H   0  0  0  0  0  0  0  0  0  0  0  0
   -2.1862    2.0039    0.5218 H   0  0  0  0  0  0  0  0  0  0  0  0
   -1.7278    0.0313   -0.4047 H   0  0  0  0  0  0  0  0  0  0  0  0
   -2.3091   -1.6377   -0.3021 H   0  0  0  0  0  0  0  0  0  0  0  0
   -2.8537   -0.5229    2.3391 H   0  0  0  0  0  0  0  0  0  0  0  0
   -1.2055   -1.8307    4.0025 H   0  0  0  0  0  0  0  0  0  0  0  0
   -0.8797   -0.0499    4.0038 H   0  0  0  0  0  0  0  0  0  0  0  0
    0.4747   -1.2144    3.7886 H   0  0  0  0  0  0  0  0  0  0  0  0
    1.0715   -1.9039    1.6082 H   0  0  0  0  0  0  0  0  0  0  0  0
    0.0289   -1.6748    0.1847 H   0  0  0  0  0  0  0  0  0  0  0  0
    1.4505    0.5521    1.8037 H   0  0  0  0  0  0  0  0  0  0  0  0
    0.3552    0.8569    0.4124 H   0  0  0  0  0  0  0  0  0  0  0  0
    3.9210    0.4854   -2.1760 H   0  0  0  0  0  0  0  0  0  0  0  0
    4.3212    2.1412   -1.6084 H   0  0  0  0  0  0  0  0  0  0  0  0
    5.0913   -0.4748   -0.1867 H   0  0  0  0  0  0  0  0  0  0  0  0
    5.4836    1.1618    0.4167 H   0  0  0  0  0  0  0  0  0  0  0  0
    8.2065   -0.5779   -1.9094 H   0  0  0  0  0  0  0  0  0  0  0  0
    6.8937   -1.5092   -1.1563 H   0  0  0  0  0  0  0  0  0  0  0  0
    9.2102   -0.7055    0.1790 H   0  0  0  0  0  0  0  0  0  0  0  0
    7.6592   -1.0623    0.9910 H   0  0  0  0  0  0  0  0  0  0  0  0
    9.3562    1.6466   -0.7084 H   0  0  0  0  0  0  0  0  0  0  0  0
    8.4516    2.8774    0.2173 H   0  0  0  0  0  0  0  0  0  0  0  0
    7.7095    2.0895   -2.2954 H   0  0  0  0  0  0  0  0  0  0  0  0
    6.5566    2.7212   -1.0991 H   0  0  0  0  0  0  0  0  0  0  0  0
  1  2  1  0
  2  3  1  0
  3  4  2  0
  4  5  1  0
  4  6  1  0
  6  7  1  0
  7  8  1  0
  8  9  1  0
  9 10  2  0
  9 11  1  0
 11  6  2  0
 11 12  1  0
 12 13  1  0
 12 14  2  0
 14  3  1  0
 14 15  1  0
 15 16  1  0
 16 17  2  3
 17 18  1  0
 17 19  1  0
 19 20  1  0
 20 21  1  0
 21 22  2  0
 21 23  1  0
 23 24  1  0
 24 25  1  0
 25 26  1  0
 26 27  1  0
 27 28  1  0
 28 29  1  0
 29 30  1  0
 30 31  1  0
 31 26  1  0
  1 32  1  0
  1 33  1  0
  1 34  1  0
  5 35  1  0
  5 36  1  0
  5 37  1  0
  7 38  1  0
  7 39  1  0
 13 40  1  0
 15 41  1  0
 15 42  1  0
 16 43  1  0
 18 44  1  0
 18 45  1  0
 18 46  1  0
 19 47  1  0
 19 48  1  0
 20 49  1  0
 20 50  1  0
 24 51  1  0
 24 52  1  0
 25 53  1  0
 25 54  1  0
 27 55  1  0
 27 56  1  0
 28 57  1  0
 28 58  1  0
 30 59  1  0
 30 60  1  0
 31 61  1  0
 31 62  1  0
M  END
> <ID>
HT1442

> <Class>
1.0

> <Clusters>
173

> <Fold>
2

$$$$