
     RDKit          3D

 65 65  0  0  0  0  0  0  0  0999 V2000
   -9.0146    1.0027    1.5102 C   0  0  0  0  0  0  0  0  0  0  0  0
   -7.7460    0.5688    0.7799 C   0  0  0  0  0  0  0  0  0  0  0  0
   -7.1402   -0.6879    1.4212 C   0  0  0  0  0  0  0  0  0  0  0  0
   -6.0204   -1.3347    0.5779 C   0  0  0  0  0  0  0  0  0  0  0  0
   -4.7326   -0.4830    0.3485 C   0  0  0  0  0  0  0  0  0  0  0  0
   -4.1572    0.0031    1.6949 C   0  0  0  0  0  0  0  0  0  0  0  0
   -5.0275    0.6434   -0.4444 O   0  0  0  0  0  0  0  0  0  0  0  0
   -3.6785   -1.3704   -0.3748 C   0  0  0  0  0  0  0  0  0  0  0  0
   -2.4730   -0.5992   -0.8524 C   0  0  0  0  0  0  0  0  0  0  0  0
   -1.4497   -1.2295   -1.4508 C   0  0  0  0  0  0  0  0  0  0  0  0
   -0.2180   -0.5053   -1.9640 C   0  0  1  0  0  0  0  0  0  0  0  0
   -0.5719    0.5107   -3.0765 C   0  0  2  0  0  0  0  0  0  0  0  0
    0.4133    0.4636   -4.0774 O   0  0  0  0  0  0  0  0  0  0  0  0
   -0.5831    1.8957   -2.4208 C   0  0  0  0  0  0  0  0  0  0  0  0
    0.1038    1.6971   -1.1218 C   0  0  0  0  0  0  0  0  0  0  0  0
    0.2641    2.6065   -0.3229 O   0  0  0  0  0  0  0  0  0  0  0  0
    0.5010    0.2850   -0.8437 C   0  0  2  0  0  0  0  0  0  0  0  0
    2.0341    0.0995   -0.9184 C   0  0  0  0  0  0  0  0  0  0  0  0
    2.7650    0.7037    0.2943 C   0  0  0  0  0  0  0  0  0  0  0  0
    4.2936    0.5743    0.1887 C   0  0  0  0  0  0  0  0  0  0  0  0
    4.7898   -0.8575    0.4593 C   0  0  0  0  0  0  0  0  0  0  0  0
    6.3186   -0.9798    0.3483 C   0  0  0  0  0  0  0  0  0  0  0  0
    7.0482   -0.3940    1.5658 C   0  0  0  0  0  0  0  0  0  0  0  0
    8.5298   -0.5634    1.4293 C   0  0  0  0  0  0  0  0  0  0  0  0
    9.0313   -1.7216    1.4088 O   0  0  0  0  0  0  0  0  0  0  0  0
    9.3456    0.5681    1.3339 O   0  0  0  0  0  0  0  0  0  0  0  0
   10.7589    0.4841    1.1911 C   0  0  0  0  0  0  0  0  0  0  0  0
   -8.7920    1.2165    2.5775 H   0  0  0  0  0  0  0  0  0  0  0  0
   -9.7876    0.2071    1.4495 H   0  0  0  0  0  0  0  0  0  0  0  0
   -9.4175    1.9245    1.0404 H   0  0  0  0  0  0  0  0  0  0  0  0
   -7.0190    1.4059    0.8284 H   0  0  0  0  0  0  0  0  0  0  0  0
   -7.9948    0.3698   -0.2853 H   0  0  0  0  0  0  0  0  0  0  0  0
   -7.9438   -1.4486    1.5364 H   0  0  0  0  0  0  0  0  0  0  0  0
   -6.7760   -0.4564    2.4444 H   0  0  0  0  0  0  0  0  0  0  0  0
   -5.7327   -2.2807    1.0888 H   0  0  0  0  0  0  0  0  0  0  0  0
   -6.4489   -1.6303   -0.4056 H   0  0  0  0  0  0  0  0  0  0  0  0
   -4.8306    0.7497    2.1655 H   0  0  0  0  0  0  0  0  0  0  0  0
   -3.1756    0.5019    1.5545 H   0  0  0  0  0  0  0  0  0  0  0  0
   -4.0197   -0.8499    2.3938 H   0  0  0  0  0  0  0  0  0  0  0  0
   -5.3754    0.3202   -1.3168 H   0  0  0  0  0  0  0  0  0  0  0  0
   -4.1451   -1.8538   -1.2614 H   0  0  0  0  0  0  0  0  0  0  0  0
   -3.3420   -2.1814    0.3089 H   0  0  0  0  0  0  0  0  0  0  0  0
   -2.4335    0.4759   -0.7127 H   0  0  0  0  0  0  0  0  0  0  0  0
   -1.4970   -2.3079   -1.5821 H   0  0  0  0  0  0  0  0  0  0  0  0
    0.4486   -1.2912   -2.3863 H   0  0  0  0  0  0  0  0  0  0  0  0
   -1.5686    0.2845   -3.5255 H   0  0  0  0  0  0  0  0  0  0  0  0
    0.0455    0.9469   -4.8636 H   0  0  0  0  0  0  0  0  0  0  0  0
   -0.0441    2.6507   -3.0334 H   0  0  0  0  0  0  0  0  0  0  0  0
   -1.6255    2.2374   -2.2439 H   0  0  0  0  0  0  0  0  0  0  0  0
    0.1372   -0.0242    0.1621 H   0  0  0  0  0  0  0  0  0  0  0  0
    2.4236    0.5504   -1.8581 H   0  0  0  0  0  0  0  0  0  0  0  0
    2.2477   -0.9894   -0.9474 H   0  0  0  0  0  0  0  0  0  0  0  0
    2.4075    0.2236    1.2315 H   0  0  0  0  0  0  0  0  0  0  0  0
    2.5312    1.7863    0.3600 H   0  0  0  0  0  0  0  0  0  0  0  0
    4.6304    0.9116   -0.8162 H   0  0  0  0  0  0  0  0  0  0  0  0
    4.7390    1.2618    0.9379 H   0  0  0  0  0  0  0  0  0  0  0  0
    4.3466   -1.5451   -0.2908 H   0  0  0  0  0  0  0  0  0  0  0  0
    4.4553   -1.1947    1.4650 H   0  0  0  0  0  0  0  0  0  0  0  0
    6.6712   -0.4823   -0.5825 H   0  0  0  0  0  0  0  0  0  0  0  0
    6.5719   -2.0604    0.2674 H   0  0  0  0  0  0  0  0  0  0  0  0
    6.8220    0.6885    1.6612 H   0  0  0  0  0  0  0  0  0  0  0  0
    6.7115   -0.9039    2.4944 H   0  0  0  0  0  0  0  0  0  0  0  0
   11.1992   -0.0457    2.0629 H   0  0  0  0  0  0  0  0  0  0  0  0
   11.1814    1.5087    1.1421 H   0  0  0  0  0  0  0  0  0  0  0  0
   11.0152   -0.0558    0.2547 H   0  0  0  0  0  0  0  0  0  0  0  0
  1  2  1  0
  2  3  1  0
  3  4  1  0
  4  5  1  0
  5  6  1  0
  5  7  1  0
  5  8  1  0
  8  9  1  0
  9 10  2  3
 11 10  1  0
 11 12  1  0
 12 13  1  0
 12 14  1  0
 14 15  1  0
 15 16  2  0
 15 17  1  0
 17 11  1  0
 17 18  1  0
 18 19  1  0
 19 20  1  0
 20 21  1  0
 21 22  1  0
 22 23  1  0
 23 24  1  0
 24 25  2  0
 24 26  1  0
 26 27  1  0
  1 28  1  0
  1 29  1  0
  1 30  1  0
  2 31  1  0
  2 32  1  0
  3 33  1  0
  3 34  1  0
  4 35  1  0
  4 36  1  0
  6 37  1  0
  6 38  1  0
  6 39  1  0
  7 40  1  0
  8 41  1  0
  8 42  1  0
  9 43  1  0
 10 44  1  0
 11 45  1  6
 12 46  1  6
 13 47  1  0
 14 48  1  0
 14 49  1  0
 17 50  1  1
 18 51  1  0
 18 52  1  0
 19 53  1  0
 19 54  1  0
 20 55  1  0
 20 56  1  0
 21 57  1  0
 21 58  1  0
 22 59  1  0
 22 60  1  0
 23 61  1  0
 23 62  1  0
 27 63  1  0
 27 64  1  0
 27 65  1  0
M  END
> <ID>
HT1412

> <Class>
1.0

> <Clusters>
12

> <Fold>
2

$$$$