  -INDIGO-08031710012D

 23 23  0  0  0  0  0  0  0  0999 V2000
   23.5842    6.3194    0.0000 C   0  0  0  0  0  0  0  0  0  0  0  0
   22.2851    5.5694    0.0000 C   0  0  0  0  0  0  0  0  0  0  0  0
   22.2851    4.0694    0.0000 C   0  0  0  0  0  0  0  0  0  0  0  0
   20.9860    6.3194    0.0000 C   0  0  0  0  0  0  0  0  0  0  0  0
   19.6869    5.5694    0.0000 C   0  0  0  0  0  0  0  0  0  0  0  0
   18.3882    6.3194    0.0000 C   0  0  0  0  0  0  0  0  0  0  0  0
   17.0891    5.5694    0.0000 C   0  0  0  0  0  0  0  0  0  0  0  0
   15.7900    6.3194    0.0000 C   0  0  0  0  0  0  0  0  0  0  0  0
   14.4909    5.5694    0.0000 C   0  0  0  0  0  0  0  0  0  0  0  0
   13.1918    6.3194    0.0000 C   0  0  0  0  0  0  0  0  0  0  0  0
   11.8927    5.5694    0.0000 C   0  0  0  0  0  0  0  0  0  0  0  0
   10.5939    6.3194    0.0000 C   0  0  0  0  0  0  0  0  0  0  0  0
    9.2948    5.5694    0.0000 C   0  0  0  0  0  0  0  0  0  0  0  0
    7.9957    6.3194    0.0000 C   0  0  0  0  0  0  0  0  0  0  0  0
    6.6966    5.5694    0.0000 C   0  0  0  0  0  0  0  0  0  0  0  0
    5.3975    6.3194    0.0000 C   0  0  0  0  0  0  0  0  0  0  0  0
    4.0984    5.5694    0.0000 C   0  0  0  0  0  0  0  0  0  0  0  0
    2.7993    6.3194    0.0000 N   0  0  0  0  0  0  0  0  0  0  0  0
    1.5006    5.5694    0.0000 C   0  0  0  0  0  0  0  0  0  0  0  0
    0.2015    6.3194    0.0000 C   0  0  0  0  0  0  0  0  0  0  0  0
    0.2015    7.8194    0.0000 C   0  0  0  0  0  0  0  0  0  0  0  0
    1.5006    8.5694    0.0000 C   0  0  0  0  0  0  0  0  0  0  0  0
    2.7993    7.8194    0.0000 C   0  0  0  0  0  0  0  0  0  0  0  0
  1  2  1  0  0  0  0
  2  3  1  0  0  0  0
  2  4  1  0  0  0  0
  4  5  1  0  0  0  0
  5  6  1  0  0  0  0
  6  7  1  0  0  0  0
  7  8  1  0  0  0  0
  8  9  1  0  0  0  0
  9 10  1  0  0  0  0
 10 11  1  0  0  0  0
 11 12  1  0  0  0  0
 12 13  1  0  0  0  0
 13 14  1  0  0  0  0
 14 15  1  0  0  0  0
 15 16  1  0  0  0  0
 16 17  1  0  0  0  0
 17 18  1  0  0  0  0
 19 18  2  0  0  0  0
 18 23  1  0  0  0  0
 20 19  1  0  0  0  0
 21 20  2  0  0  0  0
 22 21  1  0  0  0  0
 23 22  2  0  0  0  0
M  CHG  1  18   1
M  END
> <Inchi_key>
AAIMHYPMAWJDBG-UHFFFAOYSA-N

> <Source>
Mulliner

> <ID>
HT3454

> <H_MFHB>
0

> <CAS>


> <Cholestasis>


> <Name>


> <Class>
0

$$$$