

  -INDIGO-08031710012D

 34 33  0  0  0  0  0  0  0  0999 V2000
   24.7059   -9.0169    0.0000 C   0  0  0  0  0  0  0  0  0  0  0  0
   23.2058   -9.0169    0.0000 O   0  0  0  0  0  0  0  0  0  0  0  0
   22.4558   -7.7179    0.0000 C   0  0  0  0  0  0  0  0  0  0  0  0
   20.9561   -7.7179    0.0000 C   0  0  0  0  0  0  0  0  0  0  0  0
   20.2060   -6.4188    0.0000 O   0  0  0  0  0  0  0  0  0  0  0  0
   18.7060   -6.4188    0.0000 C   0  0  0  0  0  0  0  0  0  0  0  0
   17.9559   -7.7179    0.0000 O   0  0  0  0  0  0  0  0  0  0  0  0
   17.9559   -5.1198    0.0000 N   0  0  0  0  0  0  0  0  0  0  0  0
   16.4559   -5.1198    0.0000 C   0  0  0  0  0  0  0  0  0  0  0  0
   15.7058   -3.8208    0.0000 C   0  0  0  0  0  0  0  0  0  0  0  0
   14.2057   -3.8208    0.0000 C   0  0  0  0  0  0  0  0  0  0  0  0
   13.4560   -2.5218    0.0000 C   0  0  0  0  0  0  0  0  0  0  0  0
   11.9560   -2.5218    0.0000 C   0  0  0  0  0  0  0  0  0  0  0  0
   11.2059   -1.2225    0.0000 N   0  0  0  0  0  0  0  0  0  0  0  0
   11.9560    0.0765    0.0000 C   0  0  0  0  0  0  0  0  0  0  0  0
   13.4560    0.0765    0.0000 O   0  0  0  0  0  0  0  0  0  0  0  0
   11.2059    1.3755    0.0000 O   0  0  0  0  0  0  0  0  0  0  0  0
   11.9560    2.6746    0.0000 C   0  0  0  0  0  0  0  0  0  0  0  0
   11.2059    3.9736    0.0000 C   0  0  0  0  0  0  0  0  0  0  0  0
   11.9560    5.2726    0.0000 O   0  0  0  0  0  0  0  0  0  0  0  0
   11.2059    6.5716    0.0000 C   0  0  0  0  0  0  0  0  0  0  0  0
   11.2059   -3.8208    0.0000 C   0  0  0  0  0  0  0  0  0  0  0  0
   11.9560   -5.1198    0.0000 O   0  0  0  0  0  0  0  0  0  0  0  0
    9.7059   -3.8208    0.0000 N   0  0  0  0  0  0  0  0  0  0  0  0
    8.9558   -5.1198    0.0000 C   0  0  0  0  0  0  0  0  0  0  0  0
    7.4558   -5.1198    0.0000 C   0  0  0  0  0  0  0  0  0  0  0  0
    6.7061   -6.4188    0.0000 C   0  0  0  0  0  0  0  0  0  0  0  0
    5.2060   -6.4188    0.0000 C   0  0  0  0  0  0  0  0  0  0  0  0
    4.4560   -7.7179    0.0000 C   0  0  0  0  0  0  0  0  0  0  0  0
    5.2060   -9.0169    0.0000 O   0  0  0  0  0  0  0  0  0  0  0  0
    4.4560  -10.3159    0.0000 P   0  0  0  0  0  0  0  0  0  0  0  0
    5.7548  -11.0660    0.0000 O   0  0  0  0  0  0  0  0  0  0  0  0
    3.7059  -11.6149    0.0000 C   0  0  0  0  0  0  0  0  0  0  0  0
    3.1568   -9.5658    0.0000 O   0  0  0  0  0  0  0  0  0  0  0  0
  1  2  1  0  0  0  0
  2  3  1  0  0  0  0
  3  4  1  0  0  0  0
  4  5  1  0  0  0  0
  5  6  1  0  0  0  0
  6  7  2  0  0  0  0
  6  8  1  0  0  0  0
  8  9  1  0  0  0  0
  9 10  1  0  0  0  0
 10 11  1  0  0  0  0
 11 12  1  0  0  0  0
 12 13  1  0  0  0  0
 13 14  1  0  0  0  0
 13 22  1  0  0  0  0
 14 15  1  0  0  0  0
 15 16  2  0  0  0  0
 15 17  1  0  0  0  0
 17 18  1  0  0  0  0
 18 19  1  0  0  0  0
 19 20  1  0  0  0  0
 20 21  1  0  0  0  0
 22 23  2  0  0  0  0
 22 24  1  0  0  0  0
 24 25  1  0  0  0  0
 25 26  1  0  0  0  0
 26 27  1  0  0  0  0
 27 28  1  0  0  0  0
 28 29  1  0  0  0  0
 29 30  1  0  0  0  0
 30 31  1  0  0  0  0
 31 32  2  0  0  0  0
 31 33  1  0  0  0  0
 31 34  1  0  0  0  0
M  END
> <Inchi_key>
USXHAXIQRPGYFX-UHFFFAOYSA-N

> <Source>
Mulliner

> <ID>
HT1606

> <H_MFHB>
0

> <CAS>


> <Cholestasis>


> <Name>
pegaptanib

> <Class>
0


$$$$