

  -INDIGO-08031710012D

 21 21  0  0  0  0  0  0  0  0999 V2000
    1.5277    3.2271    0.0000 C   0  0  0  0  0  0  0  0  0  0  0  0
    2.8266    2.4772    0.0000 C   0  0  0  0  0  0  0  0  0  0  0  0
    2.8266    0.9772    0.0000 C   0  0  0  0  0  0  0  0  0  0  0  0
    4.1259    0.2271    0.0000 O   0  0  0  0  0  0  0  0  0  0  0  0
    4.1259   -1.2729    0.0000 C   0  0  0  0  0  0  0  0  0  0  0  0
    2.8266   -2.0228    0.0000 C   0  0  0  0  0  0  0  0  0  0  0  0
    2.8266   -3.5228    0.0000 C   0  0  0  0  0  0  0  0  0  0  0  0
    1.5277   -4.2729    0.0000 N   0  0  0  0  0  0  0  0  0  0  0  0
    4.1259   -4.2729    0.0000 C   0  0  0  0  0  0  0  0  0  0  0  0
    5.4248   -3.5228    0.0000 C   0  0  0  0  0  0  0  0  0  0  0  0
    5.4248   -2.0228    0.0000 C   0  0  0  0  0  0  0  0  0  0  0  0
    6.7239   -1.2729    0.0000 C   0  0  0  0  0  0  0  0  0  0  0  0
    6.7239    0.2271    0.0000 O   0  0  0  0  0  0  0  0  0  0  0  0
    8.0230   -2.0228    0.0000 O   0  0  0  0  0  0  0  0  0  0  0  0
    9.3219   -1.2729    0.0000 C   0  0  0  0  0  0  0  0  0  0  0  0
   10.6210   -2.0228    0.0000 C   0  0  0  0  0  0  0  0  0  0  0  0
   11.9201   -1.2729    0.0000 N   0  0  0  0  0  0  0  0  0  0  0  0
   11.9201    0.2271    0.0000 C   0  0  0  0  0  0  0  0  0  0  0  0
   13.2190    0.9772    0.0000 C   0  0  0  0  0  0  0  0  0  0  0  0
   13.2190   -2.0228    0.0000 C   0  0  0  0  0  0  0  0  0  0  0  0
   13.2190   -3.5228    0.0000 C   0  0  0  0  0  0  0  0  0  0  0  0
  1  2  1  0  0  0  0
  2  3  1  0  0  0  0
  3  4  1  0  0  0  0
  4  5  1  0  0  0  0
  6  5  2  0  0  0  0
  5 11  1  0  0  0  0
  7  6  1  0  0  0  0
  7  8  1  0  0  0  0
  9  7  2  0  0  0  0
 10  9  1  0  0  0  0
 11 10  2  0  0  0  0
 11 12  1  0  0  0  0
 12 13  2  0  0  0  0
 12 14  1  0  0  0  0
 14 15  1  0  0  0  0
 15 16  1  0  0  0  0
 16 17  1  0  0  0  0
 17 18  1  0  0  0  0
 17 20  1  0  0  0  0
 18 19  1  0  0  0  0
 20 21  1  0  0  0  0
M  END
> <Inchi_key>
CAJIGINSTLKQMM-UHFFFAOYSA-N

> <Source>
Mulliner

> <ID>
HT3326

> <H_MFHB>
0

> <CAS>


> <Cholestasis>


> <Name>


> <Class>
0


$$$$