

  -INDIGO-08031710012D

 18 19  0  0  0  0  0  0  0  0999 V2000
   -0.4144    0.7080    0.0000 C   0  0  0  0  0  0  0  0  0  0  0  0
    1.0629    0.4476    0.0000 C   0  0  0  0  0  0  0  0  0  0  0  0
    2.0270    1.5966    0.0000 O   0  0  0  0  0  0  0  0  0  0  0  0
    3.5042    1.3362    0.0000 C   0  0  0  0  0  0  0  0  0  0  0  0
    4.0172   -0.0734    0.0000 O   0  0  0  0  0  0  0  0  0  0  0  0
    4.4683    2.4852    0.0000 C   0  0  0  0  0  0  0  0  0  0  0  0
    5.2184    3.7843    0.0000 C   0  0  0  0  0  0  0  0  0  0  0  0
    6.7184    3.7843    0.0000 C   0  0  0  0  0  0  0  0  0  0  0  0
    7.4684    2.4852    0.0000 N   0  0  0  0  0  0  0  0  0  0  0  0
    8.9684    2.4852    0.0000 C   0  0  0  0  0  0  0  0  0  0  0  0
    6.7184    1.1862    0.0000 C   0  0  0  0  0  0  0  0  0  0  0  0
    5.2184    1.1862    0.0000 C   0  0  0  0  0  0  0  0  0  0  0  0
    3.3192    3.4494    0.0000 C   0  0  0  0  0  0  0  0  0  0  0  0
    1.8421    3.1889    0.0000 C   0  0  0  0  0  0  0  0  0  0  0  0
    0.8779    4.3380    0.0000 C   0  0  0  0  0  0  0  0  0  0  0  0
    1.3910    5.7475    0.0000 C   0  0  0  0  0  0  0  0  0  0  0  0
    2.8683    6.0080    0.0000 C   0  0  0  0  0  0  0  0  0  0  0  0
    3.8322    4.8589    0.0000 C   0  0  0  0  0  0  0  0  0  0  0  0
  1  2  1  0  0  0  0
  2  3  1  0  0  0  0
  3  4  1  0  0  0  0
  4  5  2  0  0  0  0
  4  6  1  0  0  0  0
  7  6  1  0  0  0  0
  6 12  1  0  0  0  0
  6 13  1  0  0  0  0
  8  7  1  0  0  0  0
  9  8  1  0  0  0  0
  9 10  1  0  0  0  0
 11  9  1  0  0  0  0
 12 11  1  0  0  0  0
 14 13  2  0  0  0  0
 13 18  1  0  0  0  0
 15 14  1  0  0  0  0
 16 15  2  0  0  0  0
 17 16  1  0  0  0  0
 18 17  2  0  0  0  0
M  END
> <Inchi_key>
XADCESSVHJOZHK-UHFFFAOYSA-N

> <Source>
Mulliner , Kotsampasakou

> <ID>
EK0413;HT1305

> <H_MFHB>
0

> <CAS>


> <Cholestasis>
0

> <Name>
meperidine hydrochloride;meperidine;pethidine

> <Class>
0


$$$$