
  -INDIGO-08031710012D

  6  6  0  0  0  0  0  0  0  0999 V2000
    4.6266    0.0000    0.0000 C   0  0  0  0  0  0  0  0  0  0  0  0
    3.1266    0.0000    0.0000 C   0  0  0  0  0  0  0  0  0  0  0  0
    2.2449   -1.2135    0.0000 C   0  0  0  0  0  0  0  0  0  0  0  0
    0.8184   -0.7500    0.0000 N   0  0  0  0  0  0  0  0  0  0  0  0
    0.8184    0.7500    0.0000 N   0  0  0  0  0  0  0  0  0  0  0  0
    2.2449    1.2135    0.0000 C   0  0  0  0  0  0  0  0  0  0  0  0
  1  2  1  0  0  0  0
  3  2  1  0  0  0  0
  2  6  2  0  0  0  0
  4  3  2  0  0  0  0
  5  4  1  0  0  0  0
  6  5  1  0  0  0  0
M  END
> <Inchi_key>
RIKMMFOAQPJVMX-UHFFFAOYSA-N

> <Source>
Mulliner

> <ID>
HT0929

> <H_MFHB>
0

> <CAS>


> <Cholestasis>


> <Name>
fomepizole;4-methylpyrazole

> <Class>
0

$$$$