

  -INDIGO-08031710012D

 21 23  0  0  0  0  0  0  0  0999 V2000
   -0.1652    1.9461    0.0000 C   0  0  0  0  0  0  0  0  0  0  0  0
    1.1909    1.3051    0.0000 N   0  0  0  0  0  0  0  0  0  0  0  0
    1.2028   -0.1947    0.0000 C   0  0  0  0  0  0  0  0  0  0  0  0
   -0.1437   -0.8559    0.0000 O   0  0  0  0  0  0  0  0  0  0  0  0
    2.3824   -1.1213    0.0000 C   0  0  0  0  0  0  0  0  0  0  0  0
    3.8425   -0.7775    0.0000 N   0  0  0  0  0  0  0  0  0  0  0  0
    4.4846    0.5782    0.0000 C   0  0  0  0  0  0  0  0  0  0  0  0
    5.9846    0.5886    0.0000 C   0  0  0  0  0  0  0  0  0  0  0  0
    6.7255    1.8929    0.0000 C   0  0  0  0  0  0  0  0  0  0  0  0
    8.2254    1.9034    0.0000 C   0  0  0  0  0  0  0  0  0  0  0  0
    8.9845    0.6097    0.0000 C   0  0  0  0  0  0  0  0  0  0  0  0
    8.2437   -0.6946    0.0000 C   0  0  0  0  0  0  0  0  0  0  0  0
    6.7437   -0.7050    0.0000 C   0  0  0  0  0  0  0  0  0  0  0  0
    6.0027   -2.0094    0.0000 F   0  0  0  0  0  0  0  0  0  0  0  0
    3.8222    1.9248    0.0000 C   0  0  0  0  0  0  0  0  0  0  0  0
    4.8346    3.0317    0.0000 C   0  0  0  0  0  0  0  0  0  0  0  0
    4.3822    4.4618    0.0000 C   0  0  0  0  0  0  0  0  0  0  0  0
    5.3946    5.5687    0.0000 Cl  0  0  0  0  0  0  0  0  0  0  0  0
    2.9175    4.7852    0.0000 C   0  0  0  0  0  0  0  0  0  0  0  0
    1.9052    3.6783    0.0000 C   0  0  0  0  0  0  0  0  0  0  0  0
    2.3574    2.2481    0.0000 C   0  0  0  0  0  0  0  0  0  0  0  0
  1  2  1  0  0  0  0
  3  2  1  0  0  0  0
  2 21  1  0  0  0  0
  3  4  2  0  0  0  0
  5  3  1  0  0  0  0
  6  5  1  0  0  0  0
  7  6  2  0  0  0  0
  7  8  1  0  0  0  0
 15  7  1  0  0  0  0
  9  8  2  0  0  0  0
  8 13  1  0  0  0  0
 10  9  1  0  0  0  0
 11 10  2  0  0  0  0
 12 11  1  0  0  0  0
 13 12  2  0  0  0  0
 13 14  1  0  0  0  0
 16 15  2  0  0  0  0
 15 21  1  0  0  0  0
 17 16  1  0  0  0  0
 17 18  1  0  0  0  0
 19 17  2  0  0  0  0
 20 19  1  0  0  0  0
 21 20  2  0  0  0  0
M  END
> <Inchi_key>
ROYOYTLGDLIGBX-UHFFFAOYSA-N

> <Source>
Mulliner

> <ID>
HT0892

> <H_MFHB>
0

> <CAS>


> <Cholestasis>


> <Name>
fludiazepam

> <Class>
0


$$$$