

  -INDIGO-08031710012D

 19 20  0  0  0  0  0  0  0  0999 V2000
    0.1579   -0.2270    0.0000 C   0  0  0  0  0  0  0  0  0  0  0  0
    1.6554   -0.1409    0.0000 C   0  0  0  0  0  0  0  0  0  0  0  0
    2.3296    1.1991    0.0000 O   0  0  0  0  0  0  0  0  0  0  0  0
    3.8271    1.2852    0.0000 C   0  0  0  0  0  0  0  0  0  0  0  0
    4.6504    0.0314    0.0000 O   0  0  0  0  0  0  0  0  0  0  0  0
    4.5013    2.6252    0.0000 C   0  0  0  0  0  0  0  0  0  0  0  0
    4.8228    4.0903    0.0000 C   0  0  0  0  0  0  0  0  0  0  0  0
    6.1698    4.7506    0.0000 C   0  0  0  0  0  0  0  0  0  0  0  0
    7.5261    4.1100    0.0000 C   0  0  0  0  0  0  0  0  0  0  0  0
    7.8716    2.6504    0.0000 N   0  0  0  0  0  0  0  0  0  0  0  0
    9.3364    2.3274    0.0000 C   0  0  0  0  0  0  0  0  0  0  0  0
    6.9457    1.4707    0.0000 C   0  0  0  0  0  0  0  0  0  0  0  0
    5.4455    1.4598    0.0000 C   0  0  0  0  0  0  0  0  0  0  0  0
    3.1294    3.2319    0.0000 C   0  0  0  0  0  0  0  0  0  0  0  0
    1.7830    2.5710    0.0000 C   0  0  0  0  0  0  0  0  0  0  0  0
    0.5372    3.4067    0.0000 C   0  0  0  0  0  0  0  0  0  0  0  0
    0.6381    4.9033    0.0000 C   0  0  0  0  0  0  0  0  0  0  0  0
    1.9846    5.5642    0.0000 C   0  0  0  0  0  0  0  0  0  0  0  0
    3.2303    4.7285    0.0000 C   0  0  0  0  0  0  0  0  0  0  0  0
  1  2  1  0  0  0  0
  2  3  1  0  0  0  0
  3  4  1  0  0  0  0
  4  5  2  0  0  0  0
  4  6  1  0  0  0  0
  7  6  1  0  0  0  0
  6 13  1  0  0  0  0
  6 14  1  0  0  0  0
  8  7  1  0  0  0  0
  9  8  1  0  0  0  0
 10  9  1  0  0  0  0
 10 11  1  0  0  0  0
 12 10  1  0  0  0  0
 13 12  1  0  0  0  0
 15 14  2  0  0  0  0
 14 19  1  0  0  0  0
 16 15  1  0  0  0  0
 17 16  2  0  0  0  0
 18 17  1  0  0  0  0
 19 18  2  0  0  0  0
M  END
> <Inchi_key>
WGJHHMKQBWSQIY-UHFFFAOYSA-N

> <Source>
Mulliner

> <ID>
HT3154

> <H_MFHB>
0

> <CAS>


> <Cholestasis>


> <Name>


> <Class>
0


$$$$