

  -INDIGO-08031710012D

 31 35  0  0  0  0  0  0  0  0999 V2000
   -0.0706    3.0366    0.0000 C   0  0  0  0  0  0  0  0  0  0  0  0
    1.2709    2.3657    0.0000 C   0  0  0  0  0  0  0  0  0  0  0  0
    0.0564    1.4855    0.0000 C   0  0  0  0  0  0  0  0  0  0  0  0
    2.0284    3.6604    0.0000 O   0  0  0  0  0  0  0  0  0  0  0  0
    3.4936    3.3403    0.0000 C   0  0  0  0  0  0  0  0  0  0  0  0
    4.8674    3.9426    0.0000 C   0  0  0  0  0  0  0  0  0  0  0  0
    5.8648    2.8223    0.0000 C   0  0  0  0  0  0  0  0  0  0  0  0
    7.3649    2.8138    0.0000 C   0  0  0  0  0  0  0  0  0  0  0  0
    8.1221    4.1086    0.0000 C   0  0  0  0  0  0  0  0  0  0  0  0
    9.6222    4.1001    0.0000 C   0  0  0  0  0  0  0  0  0  0  0  0
   10.3794    5.3949    0.0000 F   0  0  0  0  0  0  0  0  0  0  0  0
   10.3649    2.7969    0.0000 C   0  0  0  0  0  0  0  0  0  0  0  0
   11.8648    2.7884    0.0000 C   0  0  0  0  0  0  0  0  0  0  0  0
   12.6075    1.4851    0.0000 C   0  0  0  0  0  0  0  0  0  0  0  0
   14.1074    1.4767    0.0000 O   0  0  0  0  0  0  0  0  0  0  0  0
   11.8501    0.1904    0.0000 C   0  0  0  0  0  0  0  0  0  0  0  0
   10.3502    0.1988    0.0000 C   0  0  0  0  0  0  0  0  0  0  0  0
    9.6075    1.5021    0.0000 C   0  0  0  0  0  0  0  0  0  0  0  0
    8.8501    0.2074    0.0000 C   0  0  0  0  0  0  0  0  0  0  0  0
    8.1076    1.5105    0.0000 C   0  0  0  0  0  0  0  0  0  0  0  0
    7.3502    0.2158    0.0000 C   0  0  0  0  0  0  0  0  0  0  0  0
    8.0929   -1.0875    0.0000 O   0  0  0  0  0  0  0  0  0  0  0  0
    5.8503    0.2242    0.0000 C   0  0  0  0  0  0  0  0  0  0  0  0
    5.1076    1.5276    0.0000 C   0  0  0  0  0  0  0  0  0  0  0  0
    4.4659    0.1715    0.0000 C   0  0  0  0  0  0  0  0  0  0  0  0
    3.6421    1.8476    0.0000 C   0  0  0  0  0  0  0  0  0  0  0  0
    2.2683    1.2453    0.0000 O   0  0  0  0  0  0  0  0  0  0  0  0
    3.2457    0.4010    0.0000 C   0  0  0  0  0  0  0  0  0  0  0  0
    4.3004   -0.6657    0.0000 O   0  0  0  0  0  0  0  0  0  0  0  0
    1.7947    0.0210    0.0000 C   0  0  0  0  0  0  0  0  0  0  0  0
    1.3981   -1.4257    0.0000 O   0  0  0  0  0  0  0  0  0  0  0  0
  1  2  1  0  0  0  0
  2  3  1  0  0  0  0
  4  2  1  0  0  0  0
  2 27  1  0  0  0  0
  5  4  1  0  0  0  0
  6  5  1  0  0  0  0
  5 26  1  0  0  0  0
  7  6  1  0  0  0  0
  8  7  1  0  0  0  0
  7 24  1  0  0  0  0
  9  8  1  0  0  0  0
  8 20  1  0  0  0  0
 10  9  1  0  0  0  0
 10 11  1  0  0  0  0
 12 10  1  0  0  0  0
 13 12  2  0  0  0  0
 12 18  1  0  0  0  0
 14 13  1  0  0  0  0
 14 15  2  0  0  0  0
 16 14  1  0  0  0  0
 17 16  1  0  0  0  0
 18 17  1  0  0  0  0
 18 19  1  0  0  0  0
 20 18  1  0  0  0  0
 21 20  1  0  0  0  0
 21 22  1  0  0  0  0
 23 21  1  0  0  0  0
 24 23  1  0  0  0  0
 24 25  1  0  0  0  0
 26 24  1  0  0  0  0
 27 26  1  0  0  0  0
 26 28  1  0  0  0  0
 28 29  2  0  0  0  0
 28 30  1  0  0  0  0
 30 31  1  0  0  0  0
M  END
> <Inchi_key>
POPFMWWJOGLOIF-UHFFFAOYSA-N

> <Source>
Mulliner

> <ID>
HT0918

> <H_MFHB>
0

> <CAS>


> <Cholestasis>


> <Name>
flurandrenolide;flurandrenolone

> <Class>
0


$$$$