

  -INDIGO-08031710012D

 10  9  0  0  0  0  0  0  0  0999 V2000
   -0.4216   -2.3236    0.0000 C   0  0  0  0  0  0  0  0  0  0  0  0
    0.8774   -1.5736    0.0000 O   0  0  0  0  0  0  0  0  0  0  0  0
    2.1764   -2.3236    0.0000 C   0  0  0  0  0  0  0  0  0  0  0  0
    2.1764   -3.8236    0.0000 O   0  0  0  0  0  0  0  0  0  0  0  0
    3.4756   -1.5736    0.0000 C   0  0  0  0  0  0  0  0  0  0  0  0
    4.7744   -2.3236    0.0000 C   0  0  0  0  0  0  0  0  0  0  0  0
    6.0736   -1.5736    0.0000 C   0  0  0  0  0  0  0  0  0  0  0  0
    6.0736   -0.0736    0.0000 O   0  0  0  0  0  0  0  0  0  0  0  0
    7.3726   -2.3236    0.0000 C   0  0  0  0  0  0  0  0  0  0  0  0
    8.6716   -1.5736    0.0000 N   0  0  0  0  0  0  0  0  0  0  0  0
  1  2  1  0  0  0  0
  2  3  1  0  0  0  0
  3  4  2  0  0  0  0
  3  5  1  0  0  0  0
  5  6  1  0  0  0  0
  6  7  1  0  0  0  0
  7  8  2  0  0  0  0
  7  9  1  0  0  0  0
  9 10  1  0  0  0  0
M  END
> <Inchi_key>
YUUAYBAIHCDHHD-UHFFFAOYSA-N

> <Source>
Mulliner , Kotsampasakou

> <ID>
EK0337;HT1356

> <H_MFHB>
0

> <CAS>


> <Cholestasis>
0

> <Name>
methyl aminolevulinate hydrochloride;methyl aminolevulinate

> <Class>
0


$$$$