

  -INDIGO-08031710012D

 18 20  0  0  0  0  0  0  0  0999 V2000
    3.5283    4.9717    0.0000 C   0  0  0  0  0  0  0  0  0  0  0  0
    3.5283    3.4717    0.0000 N   0  0  0  0  0  0  0  0  0  0  0  0
    4.8274    2.7217    0.0000 C   0  0  0  0  0  0  0  0  0  0  0  0
    4.8274    1.2217    0.0000 C   0  0  0  0  0  0  0  0  0  0  0  0
    6.1265    0.4717    0.0000 C   0  0  0  0  0  0  0  0  0  0  0  0
    6.1265   -1.0283    0.0000 C   0  0  0  0  0  0  0  0  0  0  0  0
    7.4253   -1.7783    0.0000 C   0  0  0  0  0  0  0  0  0  0  0  0
    8.7245   -1.0283    0.0000 C   0  0  0  0  0  0  0  0  0  0  0  0
    8.7245    0.4717    0.0000 C   0  0  0  0  0  0  0  0  0  0  0  0
    7.4253    1.2217    0.0000 C   0  0  0  0  0  0  0  0  0  0  0  0
    3.5283    0.4717    0.0000 C   0  0  0  0  0  0  0  0  0  0  0  0
    3.5283   -1.0283    0.0000 C   0  0  0  0  0  0  0  0  0  0  0  0
    2.2292   -1.7783    0.0000 C   0  0  0  0  0  0  0  0  0  0  0  0
    0.9302   -1.0283    0.0000 C   0  0  0  0  0  0  0  0  0  0  0  0
    0.9302    0.4717    0.0000 C   0  0  0  0  0  0  0  0  0  0  0  0
   -0.3688    1.2217    0.0000 N   0  0  0  0  0  0  0  0  0  0  0  0
    2.2292    1.2217    0.0000 C   0  0  0  0  0  0  0  0  0  0  0  0
    2.2292    2.7217    0.0000 C   0  0  0  0  0  0  0  0  0  0  0  0
  1  2  1  0  0  0  0
  3  2  1  0  0  0  0
  2 18  1  0  0  0  0
  4  3  1  0  0  0  0
  4  5  1  0  0  0  0
 11  4  1  0  0  0  0
  6  5  2  0  0  0  0
  5 10  1  0  0  0  0
  7  6  1  0  0  0  0
  8  7  2  0  0  0  0
  9  8  1  0  0  0  0
 10  9  2  0  0  0  0
 12 11  1  0  0  0  0
 11 17  2  0  0  0  0
 13 12  2  0  0  0  0
 14 13  1  0  0  0  0
 15 14  2  0  0  0  0
 15 16  1  0  0  0  0
 17 15  1  0  0  0  0
 18 17  1  0  0  0  0
M  END
> <Inchi_key>
XXPANQJNYNUNES-UHFFFAOYSA-N

> <Source>
Mulliner

> <ID>
HT1516

> <H_MFHB>
0

> <CAS>


> <Cholestasis>


> <Name>
nomifensine

> <Class>
0


$$$$