

  -INDIGO-08031710012D

 22 22  0  0  0  0  0  0  0  0999 V2000
   15.8182   -0.0000    0.0000 C   0  0  0  0  0  0  0  0  0  0  0  0
   14.3183   -0.0000    0.0000 C   0  0  0  0  0  0  0  0  0  0  0  0
   13.5683   -1.2990    0.0000 C   0  0  0  0  0  0  0  0  0  0  0  0
   13.5683    1.2989    0.0000 N   0  0  0  0  0  0  0  0  0  0  0  0
   12.0681    1.2989    0.0000 C   0  0  0  0  0  0  0  0  0  0  0  0
   11.3183    2.5982    0.0000 C   0  0  0  0  0  0  0  0  0  0  0  0
   12.0681    3.8971    0.0000 O   0  0  0  0  0  0  0  0  0  0  0  0
    9.8182    2.5982    0.0000 C   0  0  0  0  0  0  0  0  0  0  0  0
    9.0681    3.8971    0.0000 O   0  0  0  0  0  0  0  0  0  0  0  0
    7.5683    3.8971    0.0000 C   0  0  0  0  0  0  0  0  0  0  0  0
    6.8182    2.5982    0.0000 C   0  0  0  0  0  0  0  0  0  0  0  0
    5.3183    2.5982    0.0000 C   0  0  0  0  0  0  0  0  0  0  0  0
    4.5683    1.2989    0.0000 C   0  0  0  0  0  0  0  0  0  0  0  0
    4.5683    3.8971    0.0000 C   0  0  0  0  0  0  0  0  0  0  0  0
    3.0681    3.8971    0.0000 O   0  0  0  0  0  0  0  0  0  0  0  0
    2.3183    2.5982    0.0000 C   0  0  0  0  0  0  0  0  0  0  0  0
    0.8182    2.5982    0.0000 O   0  0  0  0  0  0  0  0  0  0  0  0
    3.0681    1.2989    0.0000 C   0  0  0  0  0  0  0  0  0  0  0  0
    5.3183    5.1962    0.0000 C   0  0  0  0  0  0  0  0  0  0  0  0
    4.5683    6.4952    0.0000 C   0  0  0  0  0  0  0  0  0  0  0  0
    6.8182    5.1962    0.0000 C   0  0  0  0  0  0  0  0  0  0  0  0
    7.5683    6.4952    0.0000 C   0  0  0  0  0  0  0  0  0  0  0  0
  1  2  1  0  0  0  0
  2  3  1  0  0  0  0
  2  4  1  0  0  0  0
  4  5  1  0  0  0  0
  5  6  1  0  0  0  0
  6  7  1  0  0  0  0
  6  8  1  0  0  0  0
  8  9  1  0  0  0  0
  9 10  1  0  0  0  0
 11 10  2  0  0  0  0
 10 21  1  0  0  0  0
 12 11  1  0  0  0  0
 12 13  1  0  0  0  0
 14 12  2  0  0  0  0
 14 15  1  0  0  0  0
 19 14  1  0  0  0  0
 15 16  1  0  0  0  0
 16 17  2  0  0  0  0
 16 18  1  0  0  0  0
 19 20  1  0  0  0  0
 21 19  2  0  0  0  0
 21 22  1  0  0  0  0
M  END
> <Inchi_key>
BQIPXWYNLPYNHW-UHFFFAOYSA-N

> <Source>
Mulliner , Kotsampasakou

> <ID>
EK0344;HT1374

> <H_MFHB>
0

> <CAS>


> <Cholestasis>
0

> <Name>
metipranolol;metipranolol hydrochloride

> <Class>
0


$$$$