
  -INDIGO-08031710012D

 20 19  0  0  0  0  0  0  0  0999 V2000
    7.3713    3.0212    0.0000 N   0  0  0  0  0  0  0  0  0  0  0  0
    7.3713    4.5212    0.0000 C   0  0  0  0  0  0  0  0  0  0  0  0
    6.0720    5.2712    0.0000 C   0  0  0  0  0  0  0  0  0  0  0  0
    4.7731    4.5212    0.0000 C   0  0  0  0  0  0  0  0  0  0  0  0
    3.4741    5.2712    0.0000 C   0  0  0  0  0  0  0  0  0  0  0  0
    3.4741    6.7712    0.0000 O   0  0  0  0  0  0  0  0  0  0  0  0
    2.1751    4.5212    0.0000 N   0  0  0  0  0  0  0  0  0  0  0  0
    0.8759    5.2712    0.0000 C   0  0  0  0  0  0  0  0  0  0  0  0
    0.8759    6.7712    0.0000 C   0  0  0  0  0  0  0  0  0  0  0  0
   -0.4231    7.5212    0.0000 S   0  0  0  0  0  0  0  0  0  0  0  0
   -0.4231    4.5212    0.0000 C   0  0  0  0  0  0  0  0  0  0  0  0
   -0.4231    3.0212    0.0000 O   0  0  0  0  0  0  0  0  0  0  0  0
   -1.7220    5.2712    0.0000 N   0  0  0  0  0  0  0  0  0  0  0  0
   -3.0213    4.5212    0.0000 C   0  0  0  0  0  0  0  0  0  0  0  0
   -4.3202    5.2712    0.0000 C   0  0  0  0  0  0  0  0  0  0  0  0
   -4.3202    6.7712    0.0000 O   0  0  0  0  0  0  0  0  0  0  0  0
   -5.6192    4.5212    0.0000 O   0  0  0  0  0  0  0  0  0  0  0  0
    8.6702    5.2712    0.0000 C   0  0  0  0  0  0  0  0  0  0  0  0
    8.6702    6.7712    0.0000 O   0  0  0  0  0  0  0  0  0  0  0  0
    9.9692    4.5212    0.0000 O   0  0  0  0  0  0  0  0  0  0  0  0
  1  2  1  0  0  0  0
  2  3  1  0  0  0  0
  2 18  1  0  0  0  0
  3  4  1  0  0  0  0
  4  5  1  0  0  0  0
  5  6  2  0  0  0  0
  5  7  1  0  0  0  0
  7  8  1  0  0  0  0
  8  9  1  0  0  0  0
  8 11  1  0  0  0  0
  9 10  1  0  0  0  0
 11 12  2  0  0  0  0
 11 13  1  0  0  0  0
 13 14  1  0  0  0  0
 14 15  1  0  0  0  0
 15 16  2  0  0  0  0
 15 17  1  0  0  0  0
 18 19  2  0  0  0  0
 18 20  1  0  0  0  0
M  END
> <Inchi_key>
RWSXRVCMGQZWBV-UHFFFAOYSA-N

> <Source>
Mulliner

> <ID>
HT0993

> <H_MFHB>
0

> <CAS>


> <Cholestasis>


> <Name>
glutathione

> <Class>
0

$$$$