
  -INDIGO-08031710012D

 30 33  0  0  0  0  0  0  0  0999 V2000
   16.1280    0.0001    0.0000 C   0  0  0  0  0  0  0  0  0  0  0  0
   14.6278    0.0001    0.0000 C   0  0  0  0  0  0  0  0  0  0  0  0
   13.8778    1.2990    0.0000 C   0  0  0  0  0  0  0  0  0  0  0  0
   15.1770    2.0491    0.0000 C   0  0  0  0  0  0  0  0  0  0  0  0
   16.4760    1.2990    0.0000 C   0  0  0  0  0  0  0  0  0  0  0  0
   13.1278    2.5981    0.0000 C   0  0  0  0  0  0  0  0  0  0  0  0
   13.8778    3.8971    0.0000 C   0  0  0  0  0  0  0  0  0  0  0  0
   12.5788    0.5490    0.0000 N   0  0  0  0  0  0  0  0  0  0  0  0
   11.2799    1.2990    0.0000 C   0  0  0  0  0  0  0  0  0  0  0  0
    9.9809    0.5490    0.0000 C   0  0  0  0  0  0  0  0  0  0  0  0
    9.9809   -0.9510    0.0000 N   0  0  0  0  0  0  0  0  0  0  0  0
    8.6819   -1.7011    0.0000 C   0  0  0  0  0  0  0  0  0  0  0  0
    7.3827   -0.9510    0.0000 C   0  0  0  0  0  0  0  0  0  0  0  0
    6.0837   -1.7011    0.0000 C   0  0  0  0  0  0  0  0  0  0  0  0
    4.7848   -0.9510    0.0000 N   0  0  0  0  0  0  0  0  0  0  0  0
    3.4855   -1.7011    0.0000 C   0  0  0  0  0  0  0  0  0  0  0  0
    3.4855   -3.2010    0.0000 C   0  0  0  0  0  0  0  0  0  0  0  0
    2.1866   -3.9510    0.0000 C   0  0  0  0  0  0  0  0  0  0  0  0
    0.8876   -3.2010    0.0000 C   0  0  0  0  0  0  0  0  0  0  0  0
    0.8876   -1.7011    0.0000 C   0  0  0  0  0  0  0  0  0  0  0  0
    2.1866   -0.9510    0.0000 C   0  0  0  0  0  0  0  0  0  0  0  0
    2.1866    0.5490    0.0000 S   0  0  0  0  0  0  0  0  0  0  0  0
    3.4855    1.2990    0.0000 C   0  0  0  0  0  0  0  0  0  0  0  0
    3.4855    2.7990    0.0000 C   0  0  0  0  0  0  0  0  0  0  0  0
    4.7848    3.5490    0.0000 C   0  0  0  0  0  0  0  0  0  0  0  0
    6.0837    2.7990    0.0000 C   0  0  0  0  0  0  0  0  0  0  0  0
    6.0837    1.2990    0.0000 C   0  0  0  0  0  0  0  0  0  0  0  0
    4.7848    0.5490    0.0000 C   0  0  0  0  0  0  0  0  0  0  0  0
   11.2799   -1.7011    0.0000 C   0  0  0  0  0  0  0  0  0  0  0  0
   12.5788   -0.9510    0.0000 C   0  0  0  0  0  0  0  0  0  0  0  0
  1  2  1  0  0  0  0
  2  3  1  0  0  0  0
  3  4  1  0  0  0  0
  3  6  1  0  0  0  0
  3  8  1  0  0  0  0
  4  5  1  0  0  0  0
  6  7  1  0  0  0  0
  9  8  1  0  0  0  0
  8 30  1  0  0  0  0
 10  9  1  0  0  0  0
 11 10  1  0  0  0  0
 11 12  1  0  0  0  0
 29 11  1  0  0  0  0
 12 13  1  0  0  0  0
 13 14  1  0  0  0  0
 14 15  1  0  0  0  0
 16 15  1  0  0  0  0
 15 28  1  0  0  0  0
 17 16  2  0  0  0  0
 16 21  1  0  0  0  0
 18 17  1  0  0  0  0
 19 18  2  0  0  0  0
 20 19  1  0  0  0  0
 21 20  2  0  0  0  0
 22 21  1  0  0  0  0
 23 22  1  0  0  0  0
 24 23  2  0  0  0  0
 23 28  1  0  0  0  0
 25 24  1  0  0  0  0
 26 25  2  0  0  0  0
 27 26  1  0  0  0  0
 28 27  2  0  0  0  0
 30 29  1  0  0  0  0
M  END
> <Inchi_key>
OWGZXKBJOXRWPG-UHFFFAOYSA-N

> <Source>
Mulliner

> <ID>
HT3806

> <H_MFHB>
0

> <CAS>


> <Cholestasis>


> <Name>


> <Class>
0

$$$$