

  -INDIGO-08031710012D

 33 37  0  0  0  0  0  0  0  0999 V2000
    2.0205    7.5405    0.0000 C   0  0  0  0  0  0  0  0  0  0  0  0
    3.3194    6.7906    0.0000 O   0  0  0  0  0  0  0  0  0  0  0  0
    3.3194    5.2906    0.0000 C   0  0  0  0  0  0  0  0  0  0  0  0
    2.0205    4.5405    0.0000 C   0  0  0  0  0  0  0  0  0  0  0  0
    2.0205    3.0405    0.0000 C   0  0  0  0  0  0  0  0  0  0  0  0
    0.7213    2.2906    0.0000 C   0  0  0  0  0  0  0  0  0  0  0  0
   -0.5776    3.0405    0.0000 O   0  0  0  0  0  0  0  0  0  0  0  0
   -1.8769    2.2906    0.0000 C   0  0  0  0  0  0  0  0  0  0  0  0
   -1.8769    0.7906    0.0000 C   0  0  0  0  0  0  0  0  0  0  0  0
   -3.1758    0.0405    0.0000 C   0  0  0  0  0  0  0  0  0  0  0  0
   -4.4747    0.7906    0.0000 C   0  0  0  0  0  0  0  0  0  0  0  0
   -5.9015    0.3269    0.0000 N   0  0  0  0  0  0  0  0  0  0  0  0
   -6.7831    1.5405    0.0000 C   0  0  0  0  0  0  0  0  0  0  0  0
   -8.2830    1.5405    0.0000 C   0  0  0  0  0  0  0  0  0  0  0  0
   -5.9015    2.7540    0.0000 C   0  0  0  0  0  0  0  0  0  0  0  0
   -4.4747    2.2906    0.0000 C   0  0  0  0  0  0  0  0  0  0  0  0
   -3.1758    3.0405    0.0000 C   0  0  0  0  0  0  0  0  0  0  0  0
   -3.1758    4.5405    0.0000 F   0  0  0  0  0  0  0  0  0  0  0  0
    0.7213    0.7906    0.0000 N   0  0  0  0  0  0  0  0  0  0  0  0
    2.0205    0.0405    0.0000 C   0  0  0  0  0  0  0  0  0  0  0  0
    3.3194    0.7906    0.0000 N   0  0  0  0  0  0  0  0  0  0  0  0
    3.3194    2.2906    0.0000 C   0  0  0  0  0  0  0  0  0  0  0  0
    4.6186    3.0405    0.0000 C   0  0  0  0  0  0  0  0  0  0  0  0
    4.6186    4.5405    0.0000 C   0  0  0  0  0  0  0  0  0  0  0  0
    5.9175    5.2906    0.0000 O   0  0  0  0  0  0  0  0  0  0  0  0
    7.2164    4.5405    0.0000 C   0  0  0  0  0  0  0  0  0  0  0  0
    8.5157    5.2906    0.0000 C   0  0  0  0  0  0  0  0  0  0  0  0
    9.8146    4.5405    0.0000 C   0  0  0  0  0  0  0  0  0  0  0  0
   11.1138    5.2906    0.0000 N   0  0  0  0  0  0  0  0  0  0  0  0
   12.4841    4.6803    0.0000 C   0  0  0  0  0  0  0  0  0  0  0  0
   13.4877    5.7951    0.0000 C   0  0  0  0  0  0  0  0  0  0  0  0
   12.7376    7.0941    0.0000 C   0  0  0  0  0  0  0  0  0  0  0  0
   11.2706    6.7822    0.0000 C   0  0  0  0  0  0  0  0  0  0  0  0
  1  2  1  0  0  0  0
  2  3  1  0  0  0  0
  4  3  2  0  0  0  0
  3 24  1  0  0  0  0
  5  4  1  0  0  0  0
  6  5  2  0  0  0  0
  5 22  1  0  0  0  0
  6  7  1  0  0  0  0
 19  6  1  0  0  0  0
  7  8  1  0  0  0  0
  9  8  2  0  0  0  0
  8 17  1  0  0  0  0
 10  9  1  0  0  0  0
 11 10  2  0  0  0  0
 12 11  1  0  0  0  0
 11 16  1  0  0  0  0
 13 12  1  0  0  0  0
 13 14  1  0  0  0  0
 15 13  2  0  0  0  0
 16 15  1  0  0  0  0
 17 16  2  0  0  0  0
 17 18  1  0  0  0  0
 20 19  2  0  0  0  0
 21 20  1  0  0  0  0
 22 21  2  0  0  0  0
 23 22  1  0  0  0  0
 24 23  2  0  0  0  0
 24 25  1  0  0  0  0
 25 26  1  0  0  0  0
 26 27  1  0  0  0  0
 27 28  1  0  0  0  0
 28 29  1  0  0  0  0
 30 29  1  0  0  0  0
 29 33  1  0  0  0  0
 31 30  1  0  0  0  0
 32 31  1  0  0  0  0
 33 32  1  0  0  0  0
M  END
> <Inchi_key>
XXJWYDDUDKYVKI-UHFFFAOYSA-N

> <Source>
Mulliner

> <ID>
HT2269

> <H_MFHB>
0

> <CAS>
288383-20-0

> <Cholestasis>


> <Name>


> <Class>
0


$$$$