

  -INDIGO-08031710012D

 21 24  0  0  0  0  0  0  0  0999 V2000
   13.5647   -3.8250    0.0000 C   0  0  0  0  0  0  0  0  0  0  0  0
   12.2856   -3.0414    0.0000 N   0  0  0  0  0  0  0  0  0  0  0  0
   10.9921   -2.8052    0.0000 C   0  0  0  0  0  0  0  0  0  0  0  0
   10.9080   -1.3689    0.0000 C   0  0  0  0  0  0  0  0  0  0  0  0
   11.5938   -0.2248    0.0000 C   0  0  0  0  0  0  0  0  0  0  0  0
   11.3641   -1.8341    0.0000 C   0  0  0  0  0  0  0  0  0  0  0  0
    9.7786   -2.6721    0.0000 C   0  0  0  0  0  0  0  0  0  0  0  0
    8.5638   -2.4174    0.0000 C   0  0  0  0  0  0  0  0  0  0  0  0
    9.4954   -3.6265    0.0000 C   0  0  0  0  0  0  0  0  0  0  0  0
    7.2939   -1.6193    0.0000 O   0  0  0  0  0  0  0  0  0  0  0  0
    5.9676   -2.3202    0.0000 C   0  0  0  0  0  0  0  0  0  0  0  0
    5.9116   -3.8191    0.0000 O   0  0  0  0  0  0  0  0  0  0  0  0
    4.6976   -1.5221    0.0000 C   0  0  0  0  0  0  0  0  0  0  0  0
    4.5968   -0.0255    0.0000 C   0  0  0  0  0  0  0  0  0  0  0  0
    3.1421    0.3411    0.0000 N   0  0  0  0  0  0  0  0  0  0  0  0
    2.3442   -0.9289    0.0000 C   0  0  0  0  0  0  0  0  0  0  0  0
    0.8663   -1.1857    0.0000 C   0  0  0  0  0  0  0  0  0  0  0  0
    0.3497   -2.5939    0.0000 C   0  0  0  0  0  0  0  0  0  0  0  0
    1.3110   -3.7454    0.0000 C   0  0  0  0  0  0  0  0  0  0  0  0
    2.7888   -3.4887    0.0000 C   0  0  0  0  0  0  0  0  0  0  0  0
    3.3055   -2.0804    0.0000 C   0  0  0  0  0  0  0  0  0  0  0  0
  1  2  1  0  0  0  0
  3  2  1  0  0  0  0
  2  6  1  0  0  0  0
  3  4  1  0  0  0  0
  9  3  1  0  0  0  0
  4  5  1  0  0  0  0
  5  6  1  0  0  0  0
  6  7  1  0  0  0  0
  7  8  1  0  0  0  0
  8  9  1  0  0  0  0
  8 10  1  0  0  0  0
 10 11  1  0  0  0  0
 11 12  2  0  0  0  0
 11 13  1  0  0  0  0
 14 13  2  0  0  0  0
 13 21  1  0  0  0  0
 15 14  1  0  0  0  0
 16 15  1  0  0  0  0
 17 16  1  0  0  0  0
 16 21  2  0  0  0  0
 18 17  2  0  0  0  0
 19 18  1  0  0  0  0
 20 19  2  0  0  0  0
 21 20  1  0  0  0  0
M  END
> <Inchi_key>
ZNRGQMMCGHDTEI-UHFFFAOYSA-N

> <Source>
Mulliner

> <ID>
HT2141

> <H_MFHB>
0

> <CAS>
89565-68-4

> <Cholestasis>


> <Name>
tropisetron

> <Class>
0


$$$$