
  -INDIGO-08031710012D

 23 24  0  0  0  0  0  0  0  0999 V2000
   13.2149   -3.5409    0.0000 C   0  0  0  0  0  0  0  0  0  0  0  0
   11.9160   -2.7908    0.0000 C   0  0  0  0  0  0  0  0  0  0  0  0
   11.9160   -1.2908    0.0000 N   0  0  0  0  0  0  0  0  0  0  0  0
   13.2149   -0.5409    0.0000 C   0  0  0  0  0  0  0  0  0  0  0  0
   13.2149    0.9591    0.0000 C   0  0  0  0  0  0  0  0  0  0  0  0
   10.6167   -0.5409    0.0000 C   0  0  0  0  0  0  0  0  0  0  0  0
    9.3178   -1.2908    0.0000 C   0  0  0  0  0  0  0  0  0  0  0  0
    8.0189   -0.5409    0.0000 S   0  0  0  0  0  0  0  0  0  0  0  0
    6.7196   -1.2908    0.0000 C   0  0  0  0  0  0  0  0  0  0  0  0
    6.7196   -2.7908    0.0000 O   0  0  0  0  0  0  0  0  0  0  0  0
    5.4207   -0.5409    0.0000 C   0  0  0  0  0  0  0  0  0  0  0  0
    5.4207    0.9591    0.0000 C   0  0  0  0  0  0  0  0  0  0  0  0
    6.7196    1.7092    0.0000 C   0  0  0  0  0  0  0  0  0  0  0  0
    6.7196    3.2092    0.0000 C   0  0  0  0  0  0  0  0  0  0  0  0
    5.4207    3.9591    0.0000 C   0  0  0  0  0  0  0  0  0  0  0  0
    4.1218    3.2092    0.0000 C   0  0  0  0  0  0  0  0  0  0  0  0
    4.1218    1.7092    0.0000 C   0  0  0  0  0  0  0  0  0  0  0  0
    4.1218   -1.2908    0.0000 C   0  0  0  0  0  0  0  0  0  0  0  0
    2.8225   -0.5409    0.0000 C   0  0  0  0  0  0  0  0  0  0  0  0
    1.5236   -1.2908    0.0000 C   0  0  0  0  0  0  0  0  0  0  0  0
    1.5236   -2.7908    0.0000 C   0  0  0  0  0  0  0  0  0  0  0  0
    2.8225   -3.5409    0.0000 C   0  0  0  0  0  0  0  0  0  0  0  0
    4.1218   -2.7908    0.0000 C   0  0  0  0  0  0  0  0  0  0  0  0
  1  2  1  0  0  0  0
  2  3  1  0  0  0  0
  3  4  1  0  0  0  0
  3  6  1  0  0  0  0
  4  5  1  0  0  0  0
  6  7  1  0  0  0  0
  7  8  1  0  0  0  0
  8  9  1  0  0  0  0
  9 10  2  0  0  0  0
  9 11  1  0  0  0  0
 11 12  1  0  0  0  0
 11 18  1  0  0  0  0
 13 12  2  0  0  0  0
 12 17  1  0  0  0  0
 14 13  1  0  0  0  0
 15 14  2  0  0  0  0
 16 15  1  0  0  0  0
 17 16  2  0  0  0  0
 19 18  2  0  0  0  0
 18 23  1  0  0  0  0
 20 19  1  0  0  0  0
 21 20  2  0  0  0  0
 22 21  1  0  0  0  0
 23 22  2  0  0  0  0
M  END
> <Inchi_key>
WHLUQAYNVOGZST-UHFFFAOYSA-N

> <Source>
Mulliner

> <ID>
HT3498

> <H_MFHB>
0

> <CAS>


> <Cholestasis>


> <Name>


> <Class>
0

$$$$