

  -INDIGO-08031710012D

 22 24  0  0  0  0  0  0  0  0999 V2000
   -0.6136   -5.0781    0.0000 C   0  0  0  0  0  0  0  0  0  0  0  0
    0.1364   -3.7790    0.0000 C   0  0  0  0  0  0  0  0  0  0  0  0
   -0.6136   -2.4799    0.0000 C   0  0  0  0  0  0  0  0  0  0  0  0
    1.6364   -3.7790    0.0000 N   0  0  0  0  0  0  0  0  0  0  0  0
    2.3864   -5.0781    0.0000 C   0  0  0  0  0  0  0  0  0  0  0  0
    1.6364   -6.3771    0.0000 O   0  0  0  0  0  0  0  0  0  0  0  0
    3.8864   -5.0781    0.0000 N   0  0  0  0  0  0  0  0  0  0  0  0
    4.6364   -3.7790    0.0000 C   0  0  0  0  0  0  0  0  0  0  0  0
    6.1364   -3.7790    0.0000 C   0  0  0  0  0  0  0  0  0  0  0  0
    6.8864   -5.0781    0.0000 C   0  0  0  0  0  0  0  0  0  0  0  0
    8.3864   -5.0781    0.0000 C   0  0  0  0  0  0  0  0  0  0  0  0
    9.1364   -3.7790    0.0000 C   0  0  0  0  0  0  0  0  0  0  0  0
   10.6364   -3.7790    0.0000 F   0  0  0  0  0  0  0  0  0  0  0  0
    8.3864   -2.4799    0.0000 C   0  0  0  0  0  0  0  0  0  0  0  0
    6.8864   -2.4799    0.0000 C   0  0  0  0  0  0  0  0  0  0  0  0
    3.8864   -2.4799    0.0000 C   0  0  0  0  0  0  0  0  0  0  0  0
    4.6364   -1.1808    0.0000 C   0  0  0  0  0  0  0  0  0  0  0  0
    3.8864    0.1181    0.0000 C   0  0  0  0  0  0  0  0  0  0  0  0
    2.3864    0.1181    0.0000 C   0  0  0  0  0  0  0  0  0  0  0  0
    1.6364    1.4171    0.0000 C   0  0  0  0  0  0  0  0  0  0  0  0
    1.6364   -1.1808    0.0000 C   0  0  0  0  0  0  0  0  0  0  0  0
    2.3864   -2.4799    0.0000 C   0  0  0  0  0  0  0  0  0  0  0  0
  1  2  1  0  0  0  0
  2  3  1  0  0  0  0
  2  4  1  0  0  0  0
  5  4  1  0  0  0  0
  4 22  1  0  0  0  0
  5  6  2  0  0  0  0
  7  5  1  0  0  0  0
  8  7  2  0  0  0  0
  8  9  1  0  0  0  0
 16  8  1  0  0  0  0
 10  9  2  0  0  0  0
  9 15  1  0  0  0  0
 11 10  1  0  0  0  0
 12 11  2  0  0  0  0
 12 13  1  0  0  0  0
 14 12  1  0  0  0  0
 15 14  2  0  0  0  0
 17 16  1  0  0  0  0
 16 22  2  0  0  0  0
 18 17  2  0  0  0  0
 19 18  1  0  0  0  0
 19 20  1  0  0  0  0
 21 19  2  0  0  0  0
 22 21  1  0  0  0  0
M  END
> <Inchi_key>
ZWOUXWWGKJBAHQ-UHFFFAOYSA-N

> <Source>
Mulliner

> <ID>
HT0917

> <H_MFHB>
0

> <CAS>


> <Cholestasis>


> <Name>
fluproquazone

> <Class>
0


$$$$