
  -INDIGO-08031710012D

 21 22  0  0  0  0  0  0  0  0999 V2000
    1.7164   -0.9723    0.0000 C   0  0  0  0  0  0  0  0  0  0  0  0
    1.7413   -2.4721    0.0000 C   0  0  0  0  0  0  0  0  0  0  0  0
    3.0526   -3.2004    0.0000 C   0  0  0  0  0  0  0  0  0  0  0  0
    4.3389   -2.4290    0.0000 C   0  0  0  0  0  0  0  0  0  0  0  0
    4.3143   -0.9292    0.0000 C   0  0  0  0  0  0  0  0  0  0  0  0
    5.6006   -0.1578    0.0000 C   0  0  0  0  0  0  0  0  0  0  0  0
    6.9119   -0.8862    0.0000 C   0  0  0  0  0  0  0  0  0  0  0  0
    6.9368   -2.3860    0.0000 C   0  0  0  0  0  0  0  0  0  0  0  0
    5.6503   -3.1574    0.0000 C   0  0  0  0  0  0  0  0  0  0  0  0
    0.4550   -3.2435    0.0000 C   0  0  0  0  0  0  0  0  0  0  0  0
   -0.8564   -2.5151    0.0000 C   0  0  0  0  0  0  0  0  0  0  0  0
   -2.2163   -3.1478    0.0000 S   0  0  0  0  0  0  0  0  0  0  0  0
   -3.2385   -2.0499    0.0000 C   0  0  0  0  0  0  0  0  0  0  0  0
   -4.7274   -2.2314    0.0000 S   0  0  0  0  0  0  0  0  0  0  0  0
   -2.5100   -0.7386    0.0000 N   0  0  0  0  0  0  0  0  0  0  0  0
   -3.1429    0.6214    0.0000 C   0  0  0  0  0  0  0  0  0  0  0  0
   -4.6369    0.7535    0.0000 C   0  0  0  0  0  0  0  0  0  0  0  0
   -5.2698    2.1135    0.0000 O   0  0  0  0  0  0  0  0  0  0  0  0
   -5.4984   -0.4745    0.0000 O   0  0  0  0  0  0  0  0  0  0  0  0
   -1.0380   -1.0261    0.0000 C   0  0  0  0  0  0  0  0  0  0  0  0
    0.0601   -0.0041    0.0000 O   0  0  0  0  0  0  0  0  0  0  0  0
  1  2  1  0  0  0  0
  2  3  2  0  0  0  0
  2 10  1  0  0  0  0
  3  4  1  0  0  0  0
  5  4  2  0  0  0  0
  4  9  1  0  0  0  0
  6  5  1  0  0  0  0
  7  6  2  0  0  0  0
  8  7  1  0  0  0  0
  9  8  2  0  0  0  0
 10 11  2  0  0  0  0
 12 11  1  0  0  0  0
 11 20  1  0  0  0  0
 13 12  1  0  0  0  0
 13 14  2  0  0  0  0
 15 13  1  0  0  0  0
 15 16  1  0  0  0  0
 20 15  1  0  0  0  0
 16 17  1  0  0  0  0
 17 18  2  0  0  0  0
 17 19  1  0  0  0  0
 20 21  2  0  0  0  0
M  END
> <Inchi_key>
CHNUOJQWGUIOLD-SMTGYRLFSA-N

> <Source>
Mulliner

> <ID>
HT0766

> <H_MFHB>
0

> <CAS>
82159-09-9

> <Cholestasis>


> <Name>
epalrestat

> <Class>
0

$$$$