

  -INDIGO-08031710012D

 23 24  0  0  0  0  0  0  0  0999 V2000
    0.1037    0.0599    0.0000 C   0  0  0  0  0  0  0  0  0  0  0  0
   -0.6461   -1.2391    0.0000 C   0  0  0  0  0  0  0  0  0  0  0  0
   -1.3963   -2.5382    0.0000 C   0  0  0  0  0  0  0  0  0  0  0  0
   -1.9454   -0.4891    0.0000 O   0  0  0  0  0  0  0  0  0  0  0  0
   -3.2444   -1.2391    0.0000 C   0  0  0  0  0  0  0  0  0  0  0  0
   -4.5434   -0.4891    0.0000 C   0  0  0  0  0  0  0  0  0  0  0  0
   -5.8424   -1.2391    0.0000 C   0  0  0  0  0  0  0  0  0  0  0  0
   -5.8424   -2.7391    0.0000 C   0  0  0  0  0  0  0  0  0  0  0  0
   -7.1414   -3.4891    0.0000 Cl  0  0  0  0  0  0  0  0  0  0  0  0
   -4.5434   -3.4891    0.0000 C   0  0  0  0  0  0  0  0  0  0  0  0
   -3.2444   -2.7391    0.0000 C   0  0  0  0  0  0  0  0  0  0  0  0
    0.6529   -1.9891    0.0000 C   0  0  0  0  0  0  0  0  0  0  0  0
    0.6529   -3.4891    0.0000 O   0  0  0  0  0  0  0  0  0  0  0  0
    1.9519   -1.2391    0.0000 O   0  0  0  0  0  0  0  0  0  0  0  0
    3.2508   -1.9891    0.0000 C   0  0  0  0  0  0  0  0  0  0  0  0
    4.5498   -1.2391    0.0000 C   0  0  0  0  0  0  0  0  0  0  0  0
    4.5498    0.2609    0.0000 C   0  0  0  0  0  0  0  0  0  0  0  0
    5.8491    1.0109    0.0000 C   0  0  0  0  0  0  0  0  0  0  0  0
    7.1481    0.2609    0.0000 C   0  0  0  0  0  0  0  0  0  0  0  0
    7.1481   -1.2391    0.0000 C   0  0  0  0  0  0  0  0  0  0  0  0
    8.4471   -1.9891    0.0000 C   0  0  0  0  0  0  0  0  0  0  0  0
    9.7461   -1.2391    0.0000 O   0  0  0  0  0  0  0  0  0  0  0  0
    5.8491   -1.9891    0.0000 N   0  0  0  0  0  0  0  0  0  0  0  0
  1  2  1  0  0  0  0
  2  3  1  0  0  0  0
  2  4  1  0  0  0  0
  2 12  1  0  0  0  0
  4  5  1  0  0  0  0
  6  5  2  0  0  0  0
  5 11  1  0  0  0  0
  7  6  1  0  0  0  0
  8  7  2  0  0  0  0
  8  9  1  0  0  0  0
 10  8  1  0  0  0  0
 11 10  2  0  0  0  0
 12 13  2  0  0  0  0
 12 14  1  0  0  0  0
 14 15  1  0  0  0  0
 15 16  1  0  0  0  0
 17 16  2  0  0  0  0
 16 23  1  0  0  0  0
 18 17  1  0  0  0  0
 19 18  2  0  0  0  0
 20 19  1  0  0  0  0
 20 21  1  0  0  0  0
 23 20  2  0  0  0  0
 21 22  1  0  0  0  0
M  END
> <Inchi_key>
YJBIJSVYPHRVCI-UHFFFAOYSA-N

> <Source>
Mulliner

> <ID>
HT1694

> <H_MFHB>
0

> <CAS>
55285-45-5

> <Cholestasis>


> <Name>
pirifibrate

> <Class>
0


$$$$