

  -INDIGO-08031710012D

 26 28  0  0  0  0  0  0  0  0999 V2000
   14.7974    4.0035    0.0000 C   0  0  0  0  0  0  0  0  0  0  0  0
   13.5020    3.2472    0.0000 C   0  0  0  0  0  0  0  0  0  0  0  0
   12.1993    3.9909    0.0000 C   0  0  0  0  0  0  0  0  0  0  0  0
   12.1922    5.4908    0.0000 O   0  0  0  0  0  0  0  0  0  0  0  0
   10.9040    3.2346    0.0000 N   0  0  0  0  0  0  0  0  0  0  0  0
    9.6012    3.9782    0.0000 S   0  0  0  0  0  0  0  0  0  0  0  0
    8.8577    2.6756    0.0000 O   0  0  0  0  0  0  0  0  0  0  0  0
   10.3450    5.2809    0.0000 O   0  0  0  0  0  0  0  0  0  0  0  0
    8.2987    4.7219    0.0000 C   0  0  0  0  0  0  0  0  0  0  0  0
    7.0034    3.9656    0.0000 C   0  0  0  0  0  0  0  0  0  0  0  0
    5.7006    4.7093    0.0000 C   0  0  0  0  0  0  0  0  0  0  0  0
    5.6935    6.2093    0.0000 C   0  0  0  0  0  0  0  0  0  0  0  0
    6.9886    6.9656    0.0000 C   0  0  0  0  0  0  0  0  0  0  0  0
    8.2913    6.2219    0.0000 C   0  0  0  0  0  0  0  0  0  0  0  0
    4.3907    6.9530    0.0000 C   0  0  0  0  0  0  0  0  0  0  0  0
    4.2266    8.4439    0.0000 C   0  0  0  0  0  0  0  0  0  0  0  0
    5.3366    9.4531    0.0000 C   0  0  0  0  0  0  0  0  0  0  0  0
    2.7579    8.7487    0.0000 O   0  0  0  0  0  0  0  0  0  0  0  0
    2.0143    7.4460    0.0000 N   0  0  0  0  0  0  0  0  0  0  0  0
    3.0233    6.3362    0.0000 C   0  0  0  0  0  0  0  0  0  0  0  0
    2.7187    4.8676    0.0000 C   0  0  0  0  0  0  0  0  0  0  0  0
    3.8381    3.8693    0.0000 C   0  0  0  0  0  0  0  0  0  0  0  0
    3.5334    2.4005    0.0000 C   0  0  0  0  0  0  0  0  0  0  0  0
    2.1091    1.9301    0.0000 C   0  0  0  0  0  0  0  0  0  0  0  0
    0.9895    2.9283    0.0000 C   0  0  0  0  0  0  0  0  0  0  0  0
    1.2944    4.3971    0.0000 C   0  0  0  0  0  0  0  0  0  0  0  0
  1  2  1  0  0  0  0
  2  3  1  0  0  0  0
  3  4  2  0  0  0  0
  3  5  1  0  0  0  0
  5  6  2  0  0  0  0
  6  7  2  0  0  0  0
  6  8  1  0  0  0  0
  6  9  1  0  0  0  0
 10  9  2  0  0  0  0
  9 14  1  0  0  0  0
 11 10  1  0  0  0  0
 12 11  2  0  0  0  0
 13 12  1  0  0  0  0
 12 15  1  0  0  0  0
 14 13  2  0  0  0  0
 16 15  2  0  0  0  0
 15 20  1  0  0  0  0
 16 17  1  0  0  0  0
 18 16  1  0  0  0  0
 19 18  1  0  0  0  0
 20 19  2  0  0  0  0
 20 21  1  0  0  0  0
 22 21  2  0  0  0  0
 21 26  1  0  0  0  0
 23 22  1  0  0  0  0
 24 23  2  0  0  0  0
 25 24  1  0  0  0  0
 26 25  2  0  0  0  0
M  END
> <Inchi_key>
VMKWCMNOHDNEJW-UHFFFAOYSA-N

> <Source>
Mulliner

> <ID>
HT1594

> <H_MFHB>
0

> <CAS>


> <Cholestasis>


> <Name>
parecoxib

> <Class>
0


$$$$