
  -INDIGO-08031709442D

 16 18  0  0  0  0  0  0  0  0999 V2000
    0.5344    4.9032    0.0000 Cl  0  0  0  0  0  0  0  0  0  0  0  0
    0.5344    3.4032    0.0000 C   0  0  0  0  0  0  0  0  0  0  0  0
    1.8335    2.6532    0.0000 C   0  0  0  0  0  0  0  0  0  0  0  0
    3.1324    3.4032    0.0000 C   0  0  0  0  0  0  0  0  0  0  0  0
    4.4315    2.6532    0.0000 N   0  0  0  0  0  0  0  0  0  0  0  0
    5.8580    3.1167    0.0000 C   0  0  0  0  0  0  0  0  0  0  0  0
    6.7397    1.9032    0.0000 C   0  0  0  0  0  0  0  0  0  0  0  0
    8.2397    1.9032    0.0000 O   0  0  0  0  0  0  0  0  0  0  0  0
    5.8580    0.6896    0.0000 N   0  0  0  0  0  0  0  0  0  0  0  0
    4.4315    1.1532    0.0000 C   0  0  0  0  0  0  0  0  0  0  0  0
    3.1324    0.4032    0.0000 N   0  0  0  0  0  0  0  0  0  0  0  0
    1.8335    1.1532    0.0000 C   0  0  0  0  0  0  0  0  0  0  0  0
    0.5344    0.4032    0.0000 C   0  0  0  0  0  0  0  0  0  0  0  0
   -0.7647    1.1532    0.0000 C   0  0  0  0  0  0  0  0  0  0  0  0
   -0.7647    2.6532    0.0000 C   0  0  0  0  0  0  0  0  0  0  0  0
   -2.0637    3.4032    0.0000 Cl  0  0  0  0  0  0  0  0  0  0  0  0
  1  2  1  0  0  0  0
  3  2  2  0  0  0  0
  2 15  1  0  0  0  0
  4  3  1  0  0  0  0
  3 12  1  0  0  0  0
  5  4  1  0  0  0  0
  6  5  1  0  0  0  0
  5 10  1  0  0  0  0
  7  6  1  0  0  0  0
  7  8  2  0  0  0  0
  9  7  1  0  0  0  0
 10  9  1  0  0  0  0
 11 10  2  0  0  0  0
 12 11  1  0  0  0  0
 13 12  2  0  0  0  0
 14 13  1  0  0  0  0
 15 14  2  0  0  0  0
 15 16  1  0  0  0  0
M  END
> <Inchi_key>
OTBXOEAOVRKTNQ-UHFFFAOYSA-N

> <Source>
Kotsampasakou

> <ID>
EK0035

> <H_MFHB>


> <CAS>


> <Cholestasis>
0

> <Name>
anagrelide

> <Class>
0

$$$$