

  -INDIGO-08031710012D

 14 15  0  0  0  0  0  0  0  0999 V2000
    9.8611    0.0000    0.0000 C   0  0  0  0  0  0  0  0  0  0  0  0
    8.3611    0.0000    0.0000 C   0  0  0  0  0  0  0  0  0  0  0  0
    7.4794    1.2135    0.0000 O   0  0  0  0  0  0  0  0  0  0  0  0
    6.0528    0.7500    0.0000 C   0  0  0  0  0  0  0  0  0  0  0  0
    4.7539    1.5000    0.0000 C   0  0  0  0  0  0  0  0  0  0  0  0
    3.4548    0.7500    0.0000 C   0  0  0  0  0  0  0  0  0  0  0  0
    3.4548   -0.7500    0.0000 C   0  0  0  0  0  0  0  0  0  0  0  0
    4.7539   -1.5000    0.0000 C   0  0  0  0  0  0  0  0  0  0  0  0
    6.0528   -0.7500    0.0000 C   0  0  0  0  0  0  0  0  0  0  0  0
    7.4794   -1.2135    0.0000 O   0  0  0  0  0  0  0  0  0  0  0  0
    2.1557   -1.5000    0.0000 C   0  0  0  0  0  0  0  0  0  0  0  0
    1.4057   -0.2010    0.0000 C   0  0  0  0  0  0  0  0  0  0  0  0
    0.8567   -2.2500    0.0000 C   0  0  0  0  0  0  0  0  0  0  0  0
    2.9057   -2.7990    0.0000 C   0  0  0  0  0  0  0  0  0  0  0  0
  1  2  1  0  0  0  0
  3  2  1  0  0  0  0
  2 10  1  0  0  0  0
  4  3  1  0  0  0  0
  5  4  2  0  0  0  0
  4  9  1  0  0  0  0
  6  5  1  0  0  0  0
  7  6  2  0  0  0  0
  8  7  1  0  0  0  0
  7 11  1  0  0  0  0
  9  8  2  0  0  0  0
 10  9  1  0  0  0  0
 11 12  1  0  0  0  0
 11 13  1  0  0  0  0
 11 14  1  0  0  0  0
M  END
> <Inchi_key>
QOAMCMUZZWSALB-UHFFFAOYSA-N

> <Source>
Mulliner

> <ID>
HT1859

> <H_MFHB>
0

> <CAS>


> <Cholestasis>


> <Name>
sacrosidase

> <Class>
0


$$$$