

  -INDIGO-08031710012D

 17 18  0  0  0  0  0  0  0  0999 V2000
   -0.0338   -0.1260    0.0000 C   0  0  0  0  0  0  0  0  0  0  0  0
    1.2653   -0.8760    0.0000 N   0  0  0  0  0  0  0  0  0  0  0  0
    1.2653   -2.3760    0.0000 C   0  0  0  0  0  0  0  0  0  0  0  0
   -0.0338   -3.1260    0.0000 O   0  0  0  0  0  0  0  0  0  0  0  0
    2.5643   -3.1260    0.0000 N   0  0  0  0  0  0  0  0  0  0  0  0
    3.8633   -2.3760    0.0000 C   0  0  0  0  0  0  0  0  0  0  0  0
    5.1624   -3.1260    0.0000 O   0  0  0  0  0  0  0  0  0  0  0  0
    3.8633   -0.8760    0.0000 C   0  0  0  0  0  0  0  0  0  0  0  0
    4.6133    0.4230    0.0000 C   0  0  0  0  0  0  0  0  0  0  0  0
    5.3634   -0.8760    0.0000 C   0  0  0  0  0  0  0  0  0  0  0  0
    6.1133   -2.1751    0.0000 C   0  0  0  0  0  0  0  0  0  0  0  0
    7.6133   -2.1751    0.0000 C   0  0  0  0  0  0  0  0  0  0  0  0
    8.3633   -0.8760    0.0000 C   0  0  0  0  0  0  0  0  0  0  0  0
    7.6133    0.4230    0.0000 C   0  0  0  0  0  0  0  0  0  0  0  0
    6.1133    0.4230    0.0000 C   0  0  0  0  0  0  0  0  0  0  0  0
    2.5643   -0.1260    0.0000 C   0  0  0  0  0  0  0  0  0  0  0  0
    2.5643    1.3740    0.0000 O   0  0  0  0  0  0  0  0  0  0  0  0
  1  2  1  0  0  0  0
  3  2  1  0  0  0  0
  2 16  1  0  0  0  0
  3  4  2  0  0  0  0
  5  3  1  0  0  0  0
  6  5  1  0  0  0  0
  6  7  2  0  0  0  0
  8  6  1  0  0  0  0
  8  9  1  0  0  0  0
  8 10  1  0  0  0  0
 16  8  1  0  0  0  0
 11 10  2  0  0  0  0
 10 15  1  0  0  0  0
 12 11  1  0  0  0  0
 13 12  1  0  0  0  0
 14 13  1  0  0  0  0
 15 14  1  0  0  0  0
 16 17  2  0  0  0  0
M  END
> <Inchi_key>
UYXAWHWODHRRMR-UHFFFAOYSA-N

> <Source>
Mulliner

> <ID>
HT1033

> <H_MFHB>
0

> <CAS>


> <Cholestasis>


> <Name>
hexobarbital

> <Class>
0


$$$$