
  -INDIGO-08031710012D

 23 25  0  0  0  0  0  0  0  0999 V2000
    8.8099   -8.8099    0.0000 C   0  0  0  0  0  0  0  0  0  0  0  0
    8.8099   -7.3098    0.0000 C   0  0  0  0  0  0  0  0  0  0  0  0
    7.5109   -6.5599    0.0000 O   0  0  0  0  0  0  0  0  0  0  0  0
    7.5109   -5.0599    0.0000 C   0  0  0  0  0  0  0  0  0  0  0  0
    8.8099   -4.3098    0.0000 C   0  0  0  0  0  0  0  0  0  0  0  0
    8.8099   -2.8099    0.0000 C   0  0  0  0  0  0  0  0  0  0  0  0
    7.5109   -2.0599    0.0000 C   0  0  0  0  0  0  0  0  0  0  0  0
    6.2119   -2.8099    0.0000 C   0  0  0  0  0  0  0  0  0  0  0  0
    6.2119   -4.3098    0.0000 C   0  0  0  0  0  0  0  0  0  0  0  0
    4.9127   -5.0599    0.0000 O   0  0  0  0  0  0  0  0  0  0  0  0
    3.6139   -4.3098    0.0000 C   0  0  0  0  0  0  0  0  0  0  0  0
    2.3149   -5.0599    0.0000 C   0  0  0  0  0  0  0  0  0  0  0  0
    2.3149   -6.5599    0.0000 C   0  0  0  0  0  0  0  0  0  0  0  0
    1.0157   -7.3098    0.0000 N   0  0  0  0  0  0  0  0  0  0  0  0
   -0.2833   -6.5599    0.0000 C   0  0  0  0  0  0  0  0  0  0  0  0
   -0.2833   -5.0599    0.0000 C   0  0  0  0  0  0  0  0  0  0  0  0
    1.0157   -4.3098    0.0000 O   0  0  0  0  0  0  0  0  0  0  0  0
    3.6139   -2.8099    0.0000 C   0  0  0  0  0  0  0  0  0  0  0  0
    4.9127   -2.0599    0.0000 C   0  0  0  0  0  0  0  0  0  0  0  0
    4.9127   -0.5599    0.0000 C   0  0  0  0  0  0  0  0  0  0  0  0
    3.6139    0.1901    0.0000 C   0  0  0  0  0  0  0  0  0  0  0  0
    2.3149   -0.5599    0.0000 C   0  0  0  0  0  0  0  0  0  0  0  0
    2.3149   -2.0599    0.0000 C   0  0  0  0  0  0  0  0  0  0  0  0
  1  2  1  0  0  0  0
  2  3  1  0  0  0  0
  3  4  1  0  0  0  0
  5  4  2  0  0  0  0
  4  9  1  0  0  0  0
  6  5  1  0  0  0  0
  7  6  2  0  0  0  0
  8  7  1  0  0  0  0
  9  8  2  0  0  0  0
  9 10  1  0  0  0  0
 10 11  1  0  0  0  0
 11 12  1  0  0  0  0
 11 18  1  0  0  0  0
 13 12  1  0  0  0  0
 12 17  1  0  0  0  0
 14 13  1  0  0  0  0
 15 14  1  0  0  0  0
 16 15  1  0  0  0  0
 17 16  1  0  0  0  0
 19 18  2  0  0  0  0
 18 23  1  0  0  0  0
 20 19  1  0  0  0  0
 21 20  2  0  0  0  0
 22 21  1  0  0  0  0
 23 22  2  0  0  0  0
M  END
> <Inchi_key>
CBQGYUDMJHNJBX-UHFFFAOYSA-N

> <Source>
Mulliner

> <ID>
HT1804

> <H_MFHB>
0

> <CAS>


> <Cholestasis>


> <Name>
reboxetine

> <Class>
0

$$$$