

  -INDIGO-08031710012D

 32 34  0  0  0  0  0  0  0  0999 V2000
   22.2259   -3.2344    0.0000 C   0  0  0  0  0  0  0  0  0  0  0  0
   20.9472   -4.0186    0.0000 C   0  0  0  0  0  0  0  0  0  0  0  0
   19.6288   -3.3034    0.0000 O   0  0  0  0  0  0  0  0  0  0  0  0
   18.3501   -4.0877    0.0000 C   0  0  0  0  0  0  0  0  0  0  0  0
   18.3899   -5.5872    0.0000 O   0  0  0  0  0  0  0  0  0  0  0  0
   17.0316   -3.3724    0.0000 O   0  0  0  0  0  0  0  0  0  0  0  0
   15.7530   -4.1566    0.0000 C   0  0  0  0  0  0  0  0  0  0  0  0
   15.7928   -5.6562    0.0000 C   0  0  0  0  0  0  0  0  0  0  0  0
   14.4345   -3.4415    0.0000 O   0  0  0  0  0  0  0  0  0  0  0  0
   13.1558   -4.2259    0.0000 C   0  0  0  0  0  0  0  0  0  0  0  0
   13.1956   -5.7252    0.0000 O   0  0  0  0  0  0  0  0  0  0  0  0
   11.8373   -3.5105    0.0000 C   0  0  0  0  0  0  0  0  0  0  0  0
   10.4838   -4.1569    0.0000 N   0  0  0  0  0  0  0  0  0  0  0  0
    9.4507   -3.0692    0.0000 C   0  0  0  0  0  0  0  0  0  0  0  0
   10.1658   -1.7507    0.0000 S   0  0  0  0  0  0  0  0  0  0  0  0
   11.6408   -2.0236    0.0000 C   0  0  0  0  0  0  0  0  0  0  0  0
   13.1081   -1.7110    0.0000 C   0  0  0  0  0  0  0  0  0  0  0  0
   12.0285   -0.5744    0.0000 C   0  0  0  0  0  0  0  0  0  0  0  0
    8.3629   -4.1021    0.0000 C   0  0  0  0  0  0  0  0  0  0  0  0
    6.8636   -4.0635    0.0000 N   0  0  0  0  0  0  0  0  0  0  0  0
    6.0802   -5.3428    0.0000 C   0  0  0  0  0  0  0  0  0  0  0  0
    6.7966   -6.6609    0.0000 O   0  0  0  0  0  0  0  0  0  0  0  0
    4.5809   -5.3042    0.0000 C   0  0  0  0  0  0  0  0  0  0  0  0
    3.8645   -3.9862    0.0000 N   0  0  0  0  0  0  0  0  0  0  0  0
    3.7975   -6.5834    0.0000 C   0  0  0  0  0  0  0  0  0  0  0  0
    4.5139   -7.9013    0.0000 C   0  0  0  0  0  0  0  0  0  0  0  0
    3.7305   -9.1807    0.0000 C   0  0  0  0  0  0  0  0  0  0  0  0
    2.2312   -9.1420    0.0000 C   0  0  0  0  0  0  0  0  0  0  0  0
    1.5148   -7.8241    0.0000 C   0  0  0  0  0  0  0  0  0  0  0  0
    2.2982   -6.5448    0.0000 C   0  0  0  0  0  0  0  0  0  0  0  0
    9.3960   -5.1898    0.0000 C   0  0  0  0  0  0  0  0  0  0  0  0
    9.3574   -6.6894    0.0000 O   0  0  0  0  0  0  0  0  0  0  0  0
  1  2  1  0  0  0  0
  2  3  1  0  0  0  0
  3  4  1  0  0  0  0
  4  5  2  0  0  0  0
  4  6  1  0  0  0  0
  6  7  1  0  0  0  0
  7  8  1  0  0  0  0
  7  9  1  0  0  0  0
  9 10  1  0  0  0  0
 10 11  2  0  0  0  0
 10 12  1  0  0  0  0
 13 12  1  0  0  0  0
 12 16  1  0  0  0  0
 13 14  1  0  0  0  0
 31 13  1  0  0  0  0
 15 14  1  0  0  0  0
 14 19  1  0  0  0  0
 16 15  1  0  0  0  0
 16 17  1  0  0  0  0
 16 18  1  0  0  0  0
 19 20  1  0  0  0  0
 19 31  1  0  0  0  0
 20 21  1  0  0  0  0
 21 22  2  0  0  0  0
 21 23  1  0  0  0  0
 23 24  1  0  0  0  0
 23 25  1  0  0  0  0
 26 25  2  0  0  0  0
 25 30  1  0  0  0  0
 27 26  1  0  0  0  0
 28 27  2  0  0  0  0
 29 28  1  0  0  0  0
 30 29  2  0  0  0  0
 31 32  2  0  0  0  0
M  END
> <Inchi_key>
PFOLLRNADZZWEX-UHFFFAOYSA-N

> <Source>
Mulliner

> <ID>
HT0221

> <H_MFHB>
0

> <CAS>
37661-08-8

> <Cholestasis>


> <Name>
bacampicillin hydrochloride;bacampicillin

> <Class>
0


$$$$