
  -INDIGO-08031710012D

 25 24  0  0  0  0  0  0  0  0999 V2000
   28.2988    6.8627    0.0000 C   0  0  0  0  0  0  0  0  0  0  0  0
   26.9997    7.6127    0.0000 C   0  0  0  0  0  0  0  0  0  0  0  0
   25.7006    6.8627    0.0000 C   0  0  0  0  0  0  0  0  0  0  0  0
   24.4015    7.6127    0.0000 C   0  0  0  0  0  0  0  0  0  0  0  0
   23.1029    6.8627    0.0000 C   0  0  0  0  0  0  0  0  0  0  0  0
   21.8038    7.6127    0.0000 C   0  0  0  0  0  0  0  0  0  0  0  0
   20.5047    6.8627    0.0000 C   0  0  0  0  0  0  0  0  0  0  0  0
   19.2056    7.6127    0.0000 C   0  0  0  0  0  0  0  0  0  0  0  0
   17.9065    6.8627    0.0000 C   0  0  0  0  0  0  0  0  0  0  0  0
   16.6074    7.6127    0.0000 C   0  0  0  0  0  0  0  0  0  0  0  0
   15.3087    6.8627    0.0000 C   0  0  0  0  0  0  0  0  0  0  0  0
   14.0096    7.6127    0.0000 C   0  0  0  0  0  0  0  0  0  0  0  0
   12.7105    6.8627    0.0000 C   0  0  0  0  0  0  0  0  0  0  0  0
   11.4114    7.6127    0.0000 C   0  0  0  0  0  0  0  0  0  0  0  0
   10.1123    6.8627    0.0000 C   0  0  0  0  0  0  0  0  0  0  0  0
    8.8132    7.6127    0.0000 C   0  0  0  0  0  0  0  0  0  0  0  0
    7.5141    6.8627    0.0000 C   0  0  0  0  0  0  0  0  0  0  0  0
    6.2150    7.6127    0.0000 C   0  0  0  0  0  0  0  0  0  0  0  0
    6.2150    9.1127    0.0000 O   0  0  0  0  0  0  0  0  0  0  0  0
    4.9164    6.8627    0.0000 O   0  0  0  0  0  0  0  0  0  0  0  0
    3.6173    7.6127    0.0000 C   0  0  0  0  0  0  0  0  0  0  0  0
    2.3182    6.8627    0.0000 C   0  0  0  0  0  0  0  0  0  0  0  0
    2.3182    5.3627    0.0000 O   0  0  0  0  0  0  0  0  0  0  0  0
    1.0191    7.6127    0.0000 C   0  0  0  0  0  0  0  0  0  0  0  0
   -0.2800    6.8627    0.0000 O   0  0  0  0  0  0  0  0  0  0  0  0
  1  2  1  0  0  0  0
  2  3  1  0  0  0  0
  3  4  1  0  0  0  0
  4  5  1  0  0  0  0
  5  6  1  0  0  0  0
  6  7  1  0  0  0  0
  7  8  1  0  0  0  0
  8  9  1  0  0  0  0
  9 10  1  0  0  0  0
 10 11  1  0  0  0  0
 11 12  1  0  0  0  0
 12 13  1  0  0  0  0
 13 14  1  0  0  0  0
 14 15  1  0  0  0  0
 15 16  1  0  0  0  0
 16 17  1  0  0  0  0
 17 18  1  0  0  0  0
 18 19  2  0  0  0  0
 18 20  1  0  0  0  0
 20 21  1  0  0  0  0
 21 22  1  0  0  0  0
 22 23  1  0  0  0  0
 22 24  1  0  0  0  0
 24 25  1  0  0  0  0
M  END
> <Inchi_key>
VBICKXHEKHSIBG-UHFFFAOYSA-N

> <Source>
Mulliner

> <ID>
HT3636

> <H_MFHB>
0

> <CAS>


> <Cholestasis>


> <Name>


> <Class>
0

$$$$