
  -INDIGO-08031710012D

 21 24  0  0  0  0  0  0  0  0999 V2000
   -0.0014    0.0027    0.0000 C   0  0  0  0  0  0  0  0  0  0  0  0
    0.8544    1.2347    0.0000 C   0  0  0  0  0  0  0  0  0  0  0  0
    1.6093   -0.0615    0.0000 C   0  0  0  0  0  0  0  0  0  0  0  0
    3.1092   -0.0559    0.0000 C   0  0  0  0  0  0  0  0  0  0  0  0
    3.8543    1.2460    0.0000 C   0  0  0  0  0  0  0  0  0  0  0  0
    3.0994    2.5422    0.0000 C   0  0  0  0  0  0  0  0  0  0  0  0
    3.8445    3.8441    0.0000 C   0  0  0  0  0  0  0  0  0  0  0  0
    5.3444    3.8497    0.0000 C   0  0  0  0  0  0  0  0  0  0  0  0
    6.0993    2.5535    0.0000 C   0  0  0  0  0  0  0  0  0  0  0  0
    7.5993    2.5592    0.0000 C   0  0  0  0  0  0  0  0  0  0  0  0
    8.3542    1.2630    0.0000 C   0  0  0  0  0  0  0  0  0  0  0  0
    9.8542    1.2686    0.0000 O   0  0  0  0  0  0  0  0  0  0  0  0
    7.6092   -0.0389    0.0000 C   0  0  0  0  0  0  0  0  0  0  0  0
    6.1092   -0.0445    0.0000 C   0  0  0  0  0  0  0  0  0  0  0  0
    5.3543    1.2517    0.0000 C   0  0  0  0  0  0  0  0  0  0  0  0
    1.5994    2.5365    0.0000 C   0  0  0  0  0  0  0  0  0  0  0  0
    0.5914    3.6475    0.0000 C   0  0  0  0  0  0  0  0  0  0  0  0
   -0.7765    3.0322    0.0000 C   0  0  0  0  0  0  0  0  0  0  0  0
   -2.0784    3.7773    0.0000 O   0  0  0  0  0  0  0  0  0  0  0  0
   -0.6141    1.5410    0.0000 C   0  0  0  0  0  0  0  0  0  0  0  0
   -1.7250    0.5331    0.0000 O   0  0  0  0  0  0  0  0  0  0  0  0
  1  2  1  0  0  0  0
  3  2  1  0  0  0  0
 16  2  1  0  0  0  0
  2 20  1  0  0  0  0
  4  3  1  0  0  0  0
  5  4  1  0  0  0  0
  5  6  1  0  0  0  0
 15  5  1  0  0  0  0
  6  7  1  0  0  0  0
 16  6  1  0  0  0  0
  7  8  1  0  0  0  0
  8  9  1  0  0  0  0
 10  9  2  0  0  0  0
  9 15  1  0  0  0  0
 11 10  1  0  0  0  0
 11 12  1  0  0  0  0
 13 11  2  0  0  0  0
 14 13  1  0  0  0  0
 15 14  2  0  0  0  0
 17 16  1  0  0  0  0
 18 17  1  0  0  0  0
 18 19  1  0  0  0  0
 20 18  1  0  0  0  0
 20 21  1  0  0  0  0
M  END
> <Inchi_key>
PROQIPRRNZUXQM-UHFFFAOYSA-N

> <Source>
Mulliner

> <ID>
HT0797

> <H_MFHB>
0

> <CAS>


> <Cholestasis>


> <Name>
estriol

> <Class>
0

$$$$