
  -INDIGO-08031710012D

 34 38  0  0  0  0  0  0  0  0999 V2000
    0.9007    1.5285    0.0000 C   0  0  0  0  0  0  0  0  0  0  0  0
    2.3679    1.2167    0.0000 O   0  0  0  0  0  0  0  0  0  0  0  0
    2.8314   -0.2100    0.0000 C   0  0  0  0  0  0  0  0  0  0  0  0
    4.2986   -0.5220    0.0000 C   0  0  0  0  0  0  0  0  0  0  0  0
    4.7623   -1.9485    0.0000 C   0  0  0  0  0  0  0  0  0  0  0  0
    3.7585   -3.0631    0.0000 C   0  0  0  0  0  0  0  0  0  0  0  0
    2.2912   -2.7513    0.0000 C   0  0  0  0  0  0  0  0  0  0  0  0
    1.8278   -1.3246    0.0000 C   0  0  0  0  0  0  0  0  0  0  0  0
    4.2222   -4.4898    0.0000 N   0  0  0  0  0  0  0  0  0  0  0  0
    3.3403   -5.7034    0.0000 N   0  0  0  0  0  0  0  0  0  0  0  0
    4.2222   -6.9168    0.0000 C   0  0  0  0  0  0  0  0  0  0  0  0
    3.7585   -8.3434    0.0000 C   0  0  0  0  0  0  0  0  0  0  0  0
    2.2912   -8.6552    0.0000 O   0  0  0  0  0  0  0  0  0  0  0  0
    4.7623   -9.4581    0.0000 N   0  0  0  0  0  0  0  0  0  0  0  0
    5.6488   -6.4532    0.0000 C   0  0  0  0  0  0  0  0  0  0  0  0
    6.9478   -7.2033    0.0000 C   0  0  0  0  0  0  0  0  0  0  0  0
    8.2466   -6.4532    0.0000 C   0  0  0  0  0  0  0  0  0  0  0  0
    8.2466   -4.9533    0.0000 N   0  0  0  0  0  0  0  0  0  0  0  0
    6.9478   -4.2033    0.0000 C   0  0  0  0  0  0  0  0  0  0  0  0
    6.9478   -2.7034    0.0000 O   0  0  0  0  0  0  0  0  0  0  0  0
    5.6488   -4.9533    0.0000 C   0  0  0  0  0  0  0  0  0  0  0  0
    9.5457   -4.2033    0.0000 C   0  0  0  0  0  0  0  0  0  0  0  0
   10.8448   -4.9533    0.0000 C   0  0  0  0  0  0  0  0  0  0  0  0
   12.1438   -4.2033    0.0000 C   0  0  0  0  0  0  0  0  0  0  0  0
   12.1438   -2.7034    0.0000 C   0  0  0  0  0  0  0  0  0  0  0  0
   10.8448   -1.9533    0.0000 C   0  0  0  0  0  0  0  0  0  0  0  0
    9.5457   -2.7034    0.0000 C   0  0  0  0  0  0  0  0  0  0  0  0
   13.4429   -1.9533    0.0000 N   0  0  0  0  0  0  0  0  0  0  0  0
   13.4429   -0.4532    0.0000 C   0  0  0  0  0  0  0  0  0  0  0  0
   14.7419    0.2966    0.0000 C   0  0  0  0  0  0  0  0  0  0  0  0
   16.0410   -0.4532    0.0000 C   0  0  0  0  0  0  0  0  0  0  0  0
   16.0410   -1.9533    0.0000 C   0  0  0  0  0  0  0  0  0  0  0  0
   14.7419   -2.7034    0.0000 C   0  0  0  0  0  0  0  0  0  0  0  0
   14.7419   -4.2033    0.0000 O   0  0  0  0  0  0  0  0  0  0  0  0
  1  2  1  0  0  0  0
  2  3  1  0  0  0  0
  4  3  2  0  0  0  0
  3  8  1  0  0  0  0
  5  4  1  0  0  0  0
  6  5  2  0  0  0  0
  7  6  1  0  0  0  0
  6  9  1  0  0  0  0
  8  7  2  0  0  0  0
 10  9  1  0  0  0  0
  9 21  1  0  0  0  0
 11 10  2  0  0  0  0
 11 12  1  0  0  0  0
 15 11  1  0  0  0  0
 12 13  2  0  0  0  0
 12 14  1  0  0  0  0
 16 15  1  0  0  0  0
 15 21  2  0  0  0  0
 17 16  1  0  0  0  0
 18 17  1  0  0  0  0
 19 18  1  0  0  0  0
 18 22  1  0  0  0  0
 19 20  2  0  0  0  0
 21 19  1  0  0  0  0
 23 22  2  0  0  0  0
 22 27  1  0  0  0  0
 24 23  1  0  0  0  0
 25 24  2  0  0  0  0
 26 25  1  0  0  0  0
 25 28  1  0  0  0  0
 27 26  2  0  0  0  0
 29 28  1  0  0  0  0
 28 33  1  0  0  0  0
 30 29  1  0  0  0  0
 31 30  1  0  0  0  0
 32 31  1  0  0  0  0
 33 32  1  0  0  0  0
 33 34  2  0  0  0  0
M  END
> <Inchi_key>
QNZCBYKSOIHPEH-UHFFFAOYSA-N

> <Source>
Mulliner

> <ID>
HT0169

> <H_MFHB>
0

> <CAS>


> <Cholestasis>


> <Name>
apixaban

> <Class>
0

$$$$