
  -INDIGO-08031710012D

 11 10  0  0  0  0  0  0  0  0999 V2000
    0.3057   -0.3057    0.0000 N   0  0  0  0  0  0  0  0  0  0  0  0
    0.3057    1.1943    0.0000 C   0  0  0  0  0  0  0  0  0  0  0  0
    1.6048    1.9443    0.0000 C   0  0  0  0  0  0  0  0  0  0  0  0
    2.9039    1.1943    0.0000 S   0  0  0  0  0  0  0  0  0  0  0  0
    4.2028    1.9443    0.0000 C   0  0  0  0  0  0  0  0  0  0  0  0
    5.5018    1.1943    0.0000 C   0  0  0  0  0  0  0  0  0  0  0  0
    5.5018   -0.3057    0.0000 Cl  0  0  0  0  0  0  0  0  0  0  0  0
    4.2028    3.4443    0.0000 Cl  0  0  0  0  0  0  0  0  0  0  0  0
   -0.9934    1.9443    0.0000 C   0  0  0  0  0  0  0  0  0  0  0  0
   -2.2924    1.1943    0.0000 O   0  0  0  0  0  0  0  0  0  0  0  0
   -0.9934    3.4443    0.0000 O   0  0  0  0  0  0  0  0  0  0  0  0
  1  2  1  0  0  0  0
  2  3  1  0  0  0  0
  2  9  1  0  0  0  0
  3  4  1  0  0  0  0
  4  5  1  0  0  0  0
  5  6  2  0  0  0  0
  5  8  1  0  0  0  0
  6  7  1  0  0  0  0
  9 10  2  0  0  0  0
  9 11  1  0  0  0  0
M  END
> <Inchi_key>
PJIHCWJOTSJIPQ-RJRFIUFISA-N

> <Source>
Mulliner

> <ID>
HT0645

> <H_MFHB>
0

> <CAS>


> <Cholestasis>


> <Name>
dichlorovinyl-cysteine

> <Class>
0

$$$$