
  -INDIGO-08031710012D

 17 18  0  0  0  0  0  0  0  0999 V2000
    1.2089    4.5115    0.0000 C   0  0  0  0  0  0  0  0  0  0  0  0
    2.5079    3.7615    0.0000 C   0  0  0  0  0  0  0  0  0  0  0  0
    2.5079    2.2615    0.0000 C   0  0  0  0  0  0  0  0  0  0  0  0
    3.8069    1.5115    0.0000 C   0  0  0  0  0  0  0  0  0  0  0  0
    2.5079    0.7615    0.0000 C   0  0  0  0  0  0  0  0  0  0  0  0
    2.3512   -0.7303    0.0000 C   0  0  0  0  0  0  0  0  0  0  0  0
    0.8839   -1.0421    0.0000 C   0  0  0  0  0  0  0  0  0  0  0  0
    0.1339    0.2569    0.0000 C   0  0  0  0  0  0  0  0  0  0  0  0
    1.1376    1.3716    0.0000 C   0  0  0  0  0  0  0  0  0  0  0  0
    4.5569    0.2125    0.0000 C   0  0  0  0  0  0  0  0  0  0  0  0
    3.8069   -1.0866    0.0000 O   0  0  0  0  0  0  0  0  0  0  0  0
    6.0568    0.2125    0.0000 N   0  0  0  0  0  0  0  0  0  0  0  0
    6.8069    1.5115    0.0000 C   0  0  0  0  0  0  0  0  0  0  0  0
    8.3069    1.5115    0.0000 O   0  0  0  0  0  0  0  0  0  0  0  0
    6.0568    2.8106    0.0000 N   0  0  0  0  0  0  0  0  0  0  0  0
    4.5569    2.8106    0.0000 C   0  0  0  0  0  0  0  0  0  0  0  0
    3.8069    4.1096    0.0000 O   0  0  0  0  0  0  0  0  0  0  0  0
  1  2  2  0  0  0  0
  2  3  1  0  0  0  0
  3  4  1  0  0  0  0
  4  5  1  0  0  0  0
 10  4  1  0  0  0  0
  4 16  1  0  0  0  0
  6  5  1  0  0  0  0
  5  9  1  0  0  0  0
  7  6  1  0  0  0  0
  8  7  1  0  0  0  0
  9  8  2  0  0  0  0
 10 11  2  0  0  0  0
 12 10  1  0  0  0  0
 13 12  1  0  0  0  0
 13 14  2  0  0  0  0
 15 13  1  0  0  0  0
 16 15  1  0  0  0  0
 16 17  2  0  0  0  0
M  END
> <Inchi_key>
XOVJAYNMQDTIJD-UHFFFAOYSA-N

> <Source>
Mulliner

> <ID>
HT3017

> <H_MFHB>
0

> <CAS>


> <Cholestasis>


> <Name>


> <Class>
0

$$$$