
  -INDIGO-08031710012D

 21 23  0  0  0  0  0  0  0  0999 V2000
    4.7069    3.3866    0.0000 C   0  0  0  0  0  0  0  0  0  0  0  0
    4.2301    1.9644    0.0000 C   0  0  0  0  0  0  0  0  0  0  0  0
    4.2902    0.7005    0.0000 C   0  0  0  0  0  0  0  0  0  0  0  0
    2.9266   -0.3317    0.0000 C   0  0  0  0  0  0  0  0  0  0  0  0
    2.6262   -1.5759    0.0000 C   0  0  0  0  0  0  0  0  0  0  0  0
    1.8425   -2.8554    0.0000 C   0  0  0  0  0  0  0  0  0  0  0  0
    0.3414   -2.8172    0.0000 C   0  0  0  0  0  0  0  0  0  0  0  0
   -0.3748   -1.4992    0.0000 C   0  0  0  0  0  0  0  0  0  0  0  0
   -1.8743   -1.4604    0.0000 O   0  0  0  0  0  0  0  0  0  0  0  0
    0.4085   -0.2200    0.0000 C   0  0  0  0  0  0  0  0  0  0  0  0
    1.9060   -0.2561    0.0000 C   0  0  0  0  0  0  0  0  0  0  0  0
    3.2964    0.8428    0.0000 C   0  0  0  0  0  0  0  0  0  0  0  0
    2.2317    1.8994    0.0000 C   0  0  0  0  0  0  0  0  0  0  0  0
    4.4130   -0.4729    0.0000 C   0  0  0  0  0  0  0  0  0  0  0  0
    4.4297   -1.6548    0.0000 C   0  0  0  0  0  0  0  0  0  0  0  0
    5.3695   -0.5446    0.0000 N   0  0  0  0  0  0  0  0  0  0  0  0
    6.8695   -0.5350    0.0000 C   0  0  0  0  0  0  0  0  0  0  0  0
    7.6279   -1.8291    0.0000 C   0  0  0  0  0  0  0  0  0  0  0  0
    9.1277   -1.8195    0.0000 C   0  0  0  0  0  0  0  0  0  0  0  0
    9.8861   -3.1137    0.0000 C   0  0  0  0  0  0  0  0  0  0  0  0
    9.8694   -0.5156    0.0000 C   0  0  0  0  0  0  0  0  0  0  0  0
  1  2  1  0  0  0  0
  3  2  1  0  0  0  0
  2 12  1  0  0  0  0
  3  4  1  0  0  0  0
 16  3  1  0  0  0  0
  4  5  1  0  0  0  0
  6  5  1  0  0  0  0
  5 11  2  0  0  0  0
  7  6  2  0  0  0  0
  8  7  1  0  0  0  0
  8  9  1  0  0  0  0
 10  8  2  0  0  0  0
 11 10  1  0  0  0  0
 11 12  1  0  0  0  0
 12 13  1  0  0  0  0
 12 14  1  0  0  0  0
 14 15  1  0  0  0  0
 15 16  1  0  0  0  0
 16 17  1  0  0  0  0
 17 18  1  0  0  0  0
 18 19  2  0  0  0  0
 19 20  1  0  0  0  0
 19 21  1  0  0  0  0
M  END
> <Inchi_key>
VOKSWYLNZZRQPF-UHFFFAOYSA-N

> <Source>
Mulliner , Kotsampasakou

> <ID>
EK0408;HT1621

> <H_MFHB>
0

> <CAS>


> <Cholestasis>
0

> <Name>
pentazocine hydrochloride;pentazocine lactate;pentazocine

> <Class>
0

$$$$