

  -INDIGO-08031710012D

 36 36  0  0  0  0  0  0  0  0999 V2000
    0.0000    0.0000    0.0000 C   0  0  0  0  0  0  0  0  0  0  0  0
    1.5001    0.0000    0.0000 C   0  0  0  0  0  0  0  0  0  0  0  0
    2.2499   -1.2990    0.0000 N   0  0  0  0  0  0  0  0  0  0  0  0
    0.9509   -2.0490    0.0000 C   0  0  0  0  0  0  0  0  0  0  0  0
    0.9509   -3.5490    0.0000 C   0  0  0  0  0  0  0  0  0  0  0  0
    3.0000   -2.5981    0.0000 C   0  0  0  0  0  0  0  0  0  0  0  0
    4.5001   -2.5981    0.0000 C   0  0  0  0  0  0  0  0  0  0  0  0
    3.5489   -0.5490    0.0000 C   0  0  0  0  0  0  0  0  0  0  0  0
    3.5489    0.9511    0.0000 C   0  0  0  0  0  0  0  0  0  0  0  0
    4.8481    1.7011    0.0000 O   0  0  0  0  0  0  0  0  0  0  0  0
    6.1471    0.9511    0.0000 C   0  0  0  0  0  0  0  0  0  0  0  0
    6.1471   -0.5490    0.0000 C   0  0  0  0  0  0  0  0  0  0  0  0
    7.4461   -1.2990    0.0000 C   0  0  0  0  0  0  0  0  0  0  0  0
    8.7453   -0.5490    0.0000 C   0  0  0  0  0  0  0  0  0  0  0  0
    8.7453    0.9511    0.0000 C   0  0  0  0  0  0  0  0  0  0  0  0
   10.0443    1.7011    0.0000 O   0  0  0  0  0  0  0  0  0  0  0  0
   11.3433    0.9511    0.0000 C   0  0  0  0  0  0  0  0  0  0  0  0
   12.6422    1.7011    0.0000 C   0  0  0  0  0  0  0  0  0  0  0  0
   13.9412    0.9511    0.0000 N   0  0  0  0  0  0  0  0  0  0  0  0
   14.6913    2.2500    0.0000 C   0  0  0  0  0  0  0  0  0  0  0  0
   13.9412    3.5490    0.0000 C   0  0  0  0  0  0  0  0  0  0  0  0
   15.2404    0.2011    0.0000 C   0  0  0  0  0  0  0  0  0  0  0  0
   16.5394    0.9511    0.0000 C   0  0  0  0  0  0  0  0  0  0  0  0
   13.1914   -0.3481    0.0000 C   0  0  0  0  0  0  0  0  0  0  0  0
   13.9412   -1.6471    0.0000 C   0  0  0  0  0  0  0  0  0  0  0  0
    7.4461    1.7011    0.0000 C   0  0  0  0  0  0  0  0  0  0  0  0
    7.4461    3.2009    0.0000 O   0  0  0  0  0  0  0  0  0  0  0  0
    6.1471    3.9509    0.0000 C   0  0  0  0  0  0  0  0  0  0  0  0
    6.1471    5.4510    0.0000 C   0  0  0  0  0  0  0  0  0  0  0  0
    4.8481    6.2010    0.0000 N   0  0  0  0  0  0  0  0  0  0  0  0
    5.5982    7.4999    0.0000 C   0  0  0  0  0  0  0  0  0  0  0  0
    7.0980    7.4999    0.0000 C   0  0  0  0  0  0  0  0  0  0  0  0
    4.0981    4.9018    0.0000 C   0  0  0  0  0  0  0  0  0  0  0  0
    2.5982    4.9018    0.0000 C   0  0  0  0  0  0  0  0  0  0  0  0
    3.5489    6.9510    0.0000 C   0  0  0  0  0  0  0  0  0  0  0  0
    3.5489    8.4510    0.0000 C   0  0  0  0  0  0  0  0  0  0  0  0
  1  2  1  0  0  0  0
  2  3  1  0  0  0  0
  3  4  1  0  0  0  0
  3  6  1  0  0  0  0
  3  8  1  0  0  0  0
  4  5  1  0  0  0  0
  6  7  1  0  0  0  0
  8  9  1  0  0  0  0
  9 10  1  0  0  0  0
 10 11  1  0  0  0  0
 12 11  2  0  0  0  0
 11 26  1  0  0  0  0
 13 12  1  0  0  0  0
 14 13  2  0  0  0  0
 15 14  1  0  0  0  0
 15 16  1  0  0  0  0
 26 15  2  0  0  0  0
 16 17  1  0  0  0  0
 17 18  1  0  0  0  0
 18 19  1  0  0  0  0
 19 20  1  0  0  0  0
 19 22  1  0  0  0  0
 19 24  1  0  0  0  0
 20 21  1  0  0  0  0
 22 23  1  0  0  0  0
 24 25  1  0  0  0  0
 26 27  1  0  0  0  0
 27 28  1  0  0  0  0
 28 29  1  0  0  0  0
 29 30  1  0  0  0  0
 30 31  1  0  0  0  0
 30 33  1  0  0  0  0
 30 35  1  0  0  0  0
 31 32  1  0  0  0  0
 33 34  1  0  0  0  0
 35 36  1  0  0  0  0
M  CHG  3   3   1  19   1  30   1
M  END
> <Inchi_key>
OZLPUNFFCJDMJD-UHFFFAOYSA-N

> <Source>
Mulliner

> <ID>
HT0960

> <H_MFHB>
0

> <CAS>


> <Cholestasis>


> <Name>
gallamine triethiodide;gallamine

> <Class>
0


$$$$