

  -INDIGO-08031710012D

 26 28  0  0  0  0  0  0  0  0999 V2000
   10.3904   10.3904    0.0000 C   0  0  0  0  0  0  0  0  0  0  0  0
   10.3904    8.8904    0.0000 C   0  0  0  0  0  0  0  0  0  0  0  0
   11.6894    8.1404    0.0000 C   0  0  0  0  0  0  0  0  0  0  0  0
   11.6894    6.6404    0.0000 C   0  0  0  0  0  0  0  0  0  0  0  0
   10.3904    5.8904    0.0000 C   0  0  0  0  0  0  0  0  0  0  0  0
    9.0914    6.6404    0.0000 C   0  0  0  0  0  0  0  0  0  0  0  0
    9.0914    8.1404    0.0000 N   0  0  0  0  0  0  0  0  0  0  0  0
    7.7924    8.8904    0.0000 C   0  0  0  0  0  0  0  0  0  0  0  0
    6.4933    8.1404    0.0000 C   0  0  0  0  0  0  0  0  0  0  0  0
    5.1943    8.8904    0.0000 C   0  0  0  0  0  0  0  0  0  0  0  0
    3.8953    8.1404    0.0000 O   0  0  0  0  0  0  0  0  0  0  0  0
    2.5963    8.8904    0.0000 C   0  0  0  0  0  0  0  0  0  0  0  0
    2.5963   10.3904    0.0000 O   0  0  0  0  0  0  0  0  0  0  0  0
    1.2970    8.1404    0.0000 C   0  0  0  0  0  0  0  0  0  0  0  0
   -0.0020    8.8904    0.0000 C   0  0  0  0  0  0  0  0  0  0  0  0
   -1.3010    8.1404    0.0000 C   0  0  0  0  0  0  0  0  0  0  0  0
   -1.3010    6.6404    0.0000 C   0  0  0  0  0  0  0  0  0  0  0  0
   -2.6001    5.8904    0.0000 O   0  0  0  0  0  0  0  0  0  0  0  0
   -3.8991    6.6404    0.0000 C   0  0  0  0  0  0  0  0  0  0  0  0
   -5.1981    5.8904    0.0000 C   0  0  0  0  0  0  0  0  0  0  0  0
   -6.4971    6.6404    0.0000 C   0  0  0  0  0  0  0  0  0  0  0  0
   -6.4971    8.1404    0.0000 C   0  0  0  0  0  0  0  0  0  0  0  0
   -5.1981    8.8904    0.0000 C   0  0  0  0  0  0  0  0  0  0  0  0
   -3.8991    8.1404    0.0000 C   0  0  0  0  0  0  0  0  0  0  0  0
   -0.0020    5.8904    0.0000 C   0  0  0  0  0  0  0  0  0  0  0  0
    1.2970    6.6404    0.0000 C   0  0  0  0  0  0  0  0  0  0  0  0
  1  2  1  0  0  0  0
  3  2  1  0  0  0  0
  2  7  1  0  0  0  0
  4  3  1  0  0  0  0
  5  4  1  0  0  0  0
  6  5  1  0  0  0  0
  7  6  1  0  0  0  0
  7  8  1  0  0  0  0
  8  9  1  0  0  0  0
  9 10  1  0  0  0  0
 10 11  1  0  0  0  0
 11 12  1  0  0  0  0
 12 13  2  0  0  0  0
 12 14  1  0  0  0  0
 15 14  2  0  0  0  0
 14 26  1  0  0  0  0
 16 15  1  0  0  0  0
 17 16  2  0  0  0  0
 17 18  1  0  0  0  0
 25 17  1  0  0  0  0
 18 19  1  0  0  0  0
 20 19  1  0  0  0  0
 19 24  1  0  0  0  0
 21 20  1  0  0  0  0
 22 21  1  0  0  0  0
 23 22  1  0  0  0  0
 24 23  1  0  0  0  0
 26 25  2  0  0  0  0
M  END
> <Inchi_key>
YLRNESBGEGGQBK-UHFFFAOYSA-N

> <Source>
Mulliner

> <ID>
HT3639

> <H_MFHB>
0

> <CAS>


> <Cholestasis>


> <Name>


> <Class>
0


$$$$