
  -INDIGO-08031710012D

 28 30  0  0  0  0  0  0  0  0999 V2000
   21.6904   -3.4863    0.0000 C   0  0  0  0  0  0  0  0  0  0  0  0
   20.2660   -3.0162    0.0000 C   0  0  0  0  0  0  0  0  0  0  0  0
   19.1466   -4.0148    0.0000 C   0  0  0  0  0  0  0  0  0  0  0  0
   17.7222   -3.5448    0.0000 C   0  0  0  0  0  0  0  0  0  0  0  0
   16.6028   -4.5434    0.0000 C   0  0  0  0  0  0  0  0  0  0  0  0
   15.1784   -4.0733    0.0000 C   0  0  0  0  0  0  0  0  0  0  0  0
   14.8733   -2.6047    0.0000 O   0  0  0  0  0  0  0  0  0  0  0  0
   14.0590   -5.0719    0.0000 C   0  0  0  0  0  0  0  0  0  0  0  0
   12.6346   -4.6019    0.0000 C   0  0  0  0  0  0  0  0  0  0  0  0
   11.5155   -5.6004    0.0000 C   0  0  0  0  0  0  0  0  0  0  0  0
   11.6652   -7.0929    0.0000 C   0  0  0  0  0  0  0  0  0  0  0  0
   12.9607   -7.8489    0.0000 O   0  0  0  0  0  0  0  0  0  0  0  0
   10.2922   -7.6968    0.0000 C   0  0  0  0  0  0  0  0  0  0  0  0
    9.2938   -6.5775    0.0000 C   0  0  0  0  0  0  0  0  0  0  0  0
    7.7937   -6.5706    0.0000 C   0  0  0  0  0  0  0  0  0  0  0  0
    7.0497   -5.2682    0.0000 C   0  0  0  0  0  0  0  0  0  0  0  0
    7.8057   -3.9726    0.0000 C   0  0  0  0  0  0  0  0  0  0  0  0
    9.3055   -3.9794    0.0000 C   0  0  0  0  0  0  0  0  0  0  0  0
   10.0495   -5.2819    0.0000 C   0  0  0  0  0  0  0  0  0  0  0  0
    7.0614   -2.6701    0.0000 C   0  0  0  0  0  0  0  0  0  0  0  0
    5.5616   -2.6632    0.0000 C   0  0  0  0  0  0  0  0  0  0  0  0
    4.8056   -3.9588    0.0000 C   0  0  0  0  0  0  0  0  0  0  0  0
    5.5496   -5.2613    0.0000 C   0  0  0  0  0  0  0  0  0  0  0  0
    4.7936   -6.5569    0.0000 O   0  0  0  0  0  0  0  0  0  0  0  0
    3.2936   -6.5500    0.0000 C   0  0  0  0  0  0  0  0  0  0  0  0
    2.5379   -7.8456    0.0000 C   0  0  0  0  0  0  0  0  0  0  0  0
    1.0378   -7.8388    0.0000 O   0  0  0  0  0  0  0  0  0  0  0  0
    3.2819   -9.1481    0.0000 O   0  0  0  0  0  0  0  0  0  0  0  0
  1  2  1  0  0  0  0
  2  3  1  0  0  0  0
  3  4  1  0  0  0  0
  4  5  1  0  0  0  0
  5  6  1  0  0  0  0
  6  7  1  0  0  0  0
  6  8  1  0  0  0  0
  8  9  1  0  0  0  0
  9 10  1  0  0  0  0
 11 10  1  0  0  0  0
 10 19  1  0  0  0  0
 11 12  1  0  0  0  0
 13 11  1  0  0  0  0
 14 13  1  0  0  0  0
 15 14  1  0  0  0  0
 14 19  1  0  0  0  0
 16 15  1  0  0  0  0
 16 17  2  0  0  0  0
 23 16  1  0  0  0  0
 18 17  1  0  0  0  0
 17 20  1  0  0  0  0
 19 18  1  0  0  0  0
 20 21  2  0  0  0  0
 21 22  1  0  0  0  0
 22 23  2  0  0  0  0
 23 24  1  0  0  0  0
 24 25  1  0  0  0  0
 25 26  1  0  0  0  0
 26 27  2  0  0  0  0
 26 28  1  0  0  0  0
M  END
> <Inchi_key>
PAJMKGZZBBTTOY-UHFFFAOYSA-N

> <Source>
Mulliner , Kotsampasakou

> <ID>
EK0545;HT2103

> <H_MFHB>
0

> <CAS>


> <Cholestasis>
0

> <Name>
treprostinil sodium;treprostinil

> <Class>
0

$$$$