

  -INDIGO-08031710012D

 18 18  0  0  0  0  0  0  0  0999 V2000
    7.0131    7.0131    0.0000 N   0  0  0  0  0  0  0  0  0  0  0  0
    7.0131    5.5131    0.0000 C   0  0  0  0  0  0  0  0  0  0  0  0
    8.3123    4.7631    0.0000 C   0  0  0  0  0  0  0  0  0  0  0  0
    9.6112    5.5131    0.0000 O   0  0  0  0  0  0  0  0  0  0  0  0
    5.7142    4.7631    0.0000 C   0  0  0  0  0  0  0  0  0  0  0  0
    5.7142    3.2631    0.0000 O   0  0  0  0  0  0  0  0  0  0  0  0
    4.4150    5.5131    0.0000 N   0  0  0  0  0  0  0  0  0  0  0  0
    3.1161    4.7631    0.0000 N   0  0  0  0  0  0  0  0  0  0  0  0
    1.8170    5.5131    0.0000 C   0  0  0  0  0  0  0  0  0  0  0  0
    0.5178    4.7631    0.0000 C   0  0  0  0  0  0  0  0  0  0  0  0
    0.5178    3.2631    0.0000 C   0  0  0  0  0  0  0  0  0  0  0  0
   -0.7811    2.5131    0.0000 C   0  0  0  0  0  0  0  0  0  0  0  0
   -2.0801    3.2631    0.0000 C   0  0  0  0  0  0  0  0  0  0  0  0
   -3.3792    2.5131    0.0000 O   0  0  0  0  0  0  0  0  0  0  0  0
   -2.0801    4.7631    0.0000 C   0  0  0  0  0  0  0  0  0  0  0  0
   -3.3792    5.5131    0.0000 O   0  0  0  0  0  0  0  0  0  0  0  0
   -0.7811    5.5131    0.0000 C   0  0  0  0  0  0  0  0  0  0  0  0
   -0.7811    7.0131    0.0000 O   0  0  0  0  0  0  0  0  0  0  0  0
  1  2  1  0  0  0  0
  2  3  1  0  0  0  0
  2  5  1  0  0  0  0
  3  4  1  0  0  0  0
  5  6  2  0  0  0  0
  5  7  1  0  0  0  0
  7  8  1  0  0  0  0
  8  9  1  0  0  0  0
  9 10  1  0  0  0  0
 11 10  2  0  0  0  0
 10 17  1  0  0  0  0
 12 11  1  0  0  0  0
 13 12  2  0  0  0  0
 13 14  1  0  0  0  0
 15 13  1  0  0  0  0
 15 16  1  0  0  0  0
 17 15  2  0  0  0  0
 17 18  1  0  0  0  0
M  END
> <Inchi_key>
BNQDCRGUHNALGH-UHFFFAOYSA-N

> <Source>
Mulliner

> <ID>
HT3132

> <H_MFHB>
0

> <CAS>


> <Cholestasis>


> <Name>


> <Class>
0


$$$$