
  -INDIGO-08031710012D

 36 40  0  0  0  0  0  0  0  0999 V2000
    1.6301    1.6301    0.0000 O   0  0  0  0  0  0  0  0  0  0  0  0
    1.6301    0.1301    0.0000 C   0  0  0  0  0  0  0  0  0  0  0  0
    0.3312   -0.6199    0.0000 N   0  0  0  0  0  0  0  0  0  0  0  0
   -0.9678    0.1301    0.0000 C   0  0  0  0  0  0  0  0  0  0  0  0
   -0.9678    1.6301    0.0000 C   0  0  0  0  0  0  0  0  0  0  0  0
   -2.2671    2.3801    0.0000 C   0  0  0  0  0  0  0  0  0  0  0  0
   -3.5660    1.6301    0.0000 C   0  0  0  0  0  0  0  0  0  0  0  0
   -4.8650    2.3801    0.0000 C   0  0  0  0  0  0  0  0  0  0  0  0
   -4.8650    3.8801    0.0000 O   0  0  0  0  0  0  0  0  0  0  0  0
   -6.1639    1.6301    0.0000 C   0  0  0  0  0  0  0  0  0  0  0  0
   -6.1639    0.1301    0.0000 C   0  0  0  0  0  0  0  0  0  0  0  0
   -4.8650   -0.6199    0.0000 O   0  0  0  0  0  0  0  0  0  0  0  0
   -3.5660    0.1301    0.0000 C   0  0  0  0  0  0  0  0  0  0  0  0
   -2.2671   -0.6199    0.0000 C   0  0  0  0  0  0  0  0  0  0  0  0
   -7.4632   -0.6199    0.0000 C   0  0  0  0  0  0  0  0  0  0  0  0
   -8.8333   -0.0097    0.0000 N   0  0  0  0  0  0  0  0  0  0  0  0
   -9.8371   -1.1245    0.0000 N   0  0  0  0  0  0  0  0  0  0  0  0
   -9.0872   -2.4235    0.0000 N   0  0  0  0  0  0  0  0  0  0  0  0
   -7.6201   -2.1116    0.0000 N   0  0  0  0  0  0  0  0  0  0  0  0
    2.9290   -0.6199    0.0000 C   0  0  0  0  0  0  0  0  0  0  0  0
    2.9290   -2.1199    0.0000 C   0  0  0  0  0  0  0  0  0  0  0  0
    4.2284   -2.8699    0.0000 C   0  0  0  0  0  0  0  0  0  0  0  0
    5.5273   -2.1199    0.0000 C   0  0  0  0  0  0  0  0  0  0  0  0
    6.8262   -2.8699    0.0000 O   0  0  0  0  0  0  0  0  0  0  0  0
    8.1252   -2.1199    0.0000 C   0  0  0  0  0  0  0  0  0  0  0  0
    9.4245   -2.8699    0.0000 C   0  0  0  0  0  0  0  0  0  0  0  0
   10.7235   -2.1199    0.0000 C   0  0  0  0  0  0  0  0  0  0  0  0
   12.0224   -2.8699    0.0000 C   0  0  0  0  0  0  0  0  0  0  0  0
   13.3213   -2.1199    0.0000 C   0  0  0  0  0  0  0  0  0  0  0  0
   14.6207   -2.8699    0.0000 C   0  0  0  0  0  0  0  0  0  0  0  0
   15.9196   -2.1199    0.0000 C   0  0  0  0  0  0  0  0  0  0  0  0
   15.9196   -0.6199    0.0000 C   0  0  0  0  0  0  0  0  0  0  0  0
   14.6207    0.1301    0.0000 C   0  0  0  0  0  0  0  0  0  0  0  0
   13.3213   -0.6199    0.0000 C   0  0  0  0  0  0  0  0  0  0  0  0
    5.5273   -0.6199    0.0000 C   0  0  0  0  0  0  0  0  0  0  0  0
    4.2284    0.1301    0.0000 C   0  0  0  0  0  0  0  0  0  0  0  0
  1  2  2  0  0  0  0
  2  3  1  0  0  0  0
  2 20  1  0  0  0  0
  3  4  1  0  0  0  0
  5  4  2  0  0  0  0
  4 14  1  0  0  0  0
  6  5  1  0  0  0  0
  7  6  2  0  0  0  0
  8  7  1  0  0  0  0
  7 13  1  0  0  0  0
  8  9  2  0  0  0  0
 10  8  1  0  0  0  0
 11 10  2  0  0  0  0
 12 11  1  0  0  0  0
 11 15  1  0  0  0  0
 13 12  1  0  0  0  0
 14 13  2  0  0  0  0
 16 15  1  0  0  0  0
 15 19  2  0  0  0  0
 17 16  2  0  0  0  0
 18 17  1  0  0  0  0
 19 18  1  0  0  0  0
 21 20  2  0  0  0  0
 20 36  1  0  0  0  0
 22 21  1  0  0  0  0
 23 22  2  0  0  0  0
 23 24  1  0  0  0  0
 35 23  1  0  0  0  0
 24 25  1  0  0  0  0
 25 26  1  0  0  0  0
 26 27  1  0  0  0  0
 27 28  1  0  0  0  0
 28 29  1  0  0  0  0
 30 29  2  0  0  0  0
 29 34  1  0  0  0  0
 31 30  1  0  0  0  0
 32 31  2  0  0  0  0
 33 32  1  0  0  0  0
 34 33  2  0  0  0  0
 36 35  2  0  0  0  0
M  END
> <Inchi_key>
UAJUXJSXCLUTNU-UHFFFAOYSA-N

> <Source>
Mulliner

> <ID>
HT1722

> <H_MFHB>
0

> <CAS>


> <Cholestasis>


> <Name>
pranlukast

> <Class>
0

$$$$