

  -INDIGO-08031710012D

 22 23  0  0  0  0  0  0  0  0999 V2000
    1.6474    1.6475    0.0000 C   0  0  0  0  0  0  0  0  0  0  0  0
    1.6474    0.1475    0.0000 C   0  0  0  0  0  0  0  0  0  0  0  0
    2.9465   -0.6025    0.0000 C   0  0  0  0  0  0  0  0  0  0  0  0
    4.2455    0.1475    0.0000 C   0  0  0  0  0  0  0  0  0  0  0  0
    2.9465   -2.1025    0.0000 C   0  0  0  0  0  0  0  0  0  0  0  0
    4.2455   -2.8525    0.0000 C   0  0  0  0  0  0  0  0  0  0  0  0
    4.2455   -4.3525    0.0000 O   0  0  0  0  0  0  0  0  0  0  0  0
    5.5446   -2.1025    0.0000 O   0  0  0  0  0  0  0  0  0  0  0  0
    6.8437   -2.8525    0.0000 C   0  0  0  0  0  0  0  0  0  0  0  0
    6.8437   -4.3525    0.0000 C   0  0  0  0  0  0  0  0  0  0  0  0
    8.1428   -5.1025    0.0000 C   0  0  0  0  0  0  0  0  0  0  0  0
    9.4417   -4.3525    0.0000 N   0  0  0  0  0  0  0  0  0  0  0  0
   10.9417   -4.3525    0.0000 C   0  0  0  0  0  0  0  0  0  0  0  0
   10.1917   -5.6516    0.0000 C   0  0  0  0  0  0  0  0  0  0  0  0
    9.4417   -2.8525    0.0000 C   0  0  0  0  0  0  0  0  0  0  0  0
    8.1428   -2.1025    0.0000 C   0  0  0  0  0  0  0  0  0  0  0  0
    1.6474   -2.8525    0.0000 C   0  0  0  0  0  0  0  0  0  0  0  0
    1.6474   -4.3525    0.0000 C   0  0  0  0  0  0  0  0  0  0  0  0
    0.3483   -5.1025    0.0000 C   0  0  0  0  0  0  0  0  0  0  0  0
   -0.9506   -4.3525    0.0000 C   0  0  0  0  0  0  0  0  0  0  0  0
   -0.9506   -2.8525    0.0000 C   0  0  0  0  0  0  0  0  0  0  0  0
    0.3483   -2.1025    0.0000 C   0  0  0  0  0  0  0  0  0  0  0  0
  1  2  1  0  0  0  0
  2  3  1  0  0  0  0
  3  4  1  0  0  0  0
  3  5  1  0  0  0  0
  5  6  1  0  0  0  0
  5 17  1  0  0  0  0
  6  7  2  0  0  0  0
  6  8  1  0  0  0  0
  8  9  1  0  0  0  0
 10  9  1  0  0  0  0
  9 16  1  0  0  0  0
 11 10  1  0  0  0  0
 12 11  1  0  0  0  0
 12 13  1  0  0  0  0
 12 14  1  0  0  0  0
 15 12  1  0  0  0  0
 16 15  1  0  0  0  0
 18 17  2  0  0  0  0
 17 22  1  0  0  0  0
 19 18  1  0  0  0  0
 20 19  2  0  0  0  0
 21 20  1  0  0  0  0
 22 21  2  0  0  0  0
M  CHG  1  12   1
M  END
> <Inchi_key>
WSWDKMFWJOALEW-UHFFFAOYSA-N

> <Source>
Mulliner

> <ID>
HT3380

> <H_MFHB>
0

> <CAS>


> <Cholestasis>


> <Name>


> <Class>
0


$$$$