

  -INDIGO-08031710012D

 15 14  0  0  0  0  0  0  0  0999 V2000
    1.4019   -6.5981    0.0000 C   0  0  0  0  0  0  0  0  0  0  0  0
    1.4019   -5.0982    0.0000 C   0  0  0  0  0  0  0  0  0  0  0  0
    0.1029   -4.3481    0.0000 O   0  0  0  0  0  0  0  0  0  0  0  0
    2.7009   -4.3481    0.0000 O   0  0  0  0  0  0  0  0  0  0  0  0
    2.7009   -2.8481    0.0000 C   0  0  0  0  0  0  0  0  0  0  0  0
    4.0000   -2.0981    0.0000 C   0  0  0  0  0  0  0  0  0  0  0  0
    5.2990   -2.8481    0.0000 C   0  0  0  0  0  0  0  0  0  0  0  0
    6.5982   -2.0981    0.0000 O   0  0  0  0  0  0  0  0  0  0  0  0
    7.8970   -2.8481    0.0000 C   0  0  0  0  0  0  0  0  0  0  0  0
    9.1962   -2.0981    0.0000 O   0  0  0  0  0  0  0  0  0  0  0  0
    7.8970   -4.3481    0.0000 C   0  0  0  0  0  0  0  0  0  0  0  0
    4.0000   -0.5981    0.0000 O   0  0  0  0  0  0  0  0  0  0  0  0
    2.7009    0.1520    0.0000 C   0  0  0  0  0  0  0  0  0  0  0  0
    1.4019   -0.5981    0.0000 O   0  0  0  0  0  0  0  0  0  0  0  0
    2.7009    1.6519    0.0000 C   0  0  0  0  0  0  0  0  0  0  0  0
  1  2  1  0  0  0  0
  2  3  2  0  0  0  0
  2  4  1  0  0  0  0
  4  5  1  0  0  0  0
  5  6  1  0  0  0  0
  6  7  1  0  0  0  0
  6 12  1  0  0  0  0
  7  8  1  0  0  0  0
  8  9  1  0  0  0  0
  9 10  2  0  0  0  0
  9 11  1  0  0  0  0
 12 13  1  0  0  0  0
 13 14  2  0  0  0  0
 13 15  1  0  0  0  0
M  END
> <Inchi_key>
URAYPUMNDPQOKB-UHFFFAOYSA-N

> <Source>
Mulliner

> <ID>
HT2941

> <H_MFHB>
0

> <CAS>


> <Cholestasis>


> <Name>


> <Class>
0


$$$$