
  -INDIGO-08031710012D

 38 42  0  0  0  0  0  0  0  0999 V2000
    8.5957  -11.2080    0.0000 C   0  0  0  0  0  0  0  0  0  0  0  0
    8.9846   -9.7593    0.0000 C   0  0  0  0  0  0  0  0  0  0  0  0
    9.3737   -8.3106    0.0000 C   0  0  0  0  0  0  0  0  0  0  0  0
   10.4333  -10.1483    0.0000 C   0  0  0  0  0  0  0  0  0  0  0  0
    7.5358   -9.3702    0.0000 C   0  0  0  0  0  0  0  0  0  0  0  0
    6.4748  -10.4304    0.0000 C   0  0  0  0  0  0  0  0  0  0  0  0
    6.8622  -11.8795    0.0000 O   0  0  0  0  0  0  0  0  0  0  0  0
    5.0260  -10.0415    0.0000 O   0  0  0  0  0  0  0  0  0  0  0  0
    4.6386   -8.5924    0.0000 C   0  0  0  0  0  0  0  0  0  0  0  0
    3.1898   -8.2034    0.0000 C   0  0  0  0  0  0  0  0  0  0  0  0
    2.1285   -9.2634    0.0000 O   0  0  0  0  0  0  0  0  0  0  0  0
    2.8024   -6.7543    0.0000 C   0  0  0  0  0  0  0  0  0  0  0  0
    4.1724   -7.3651    0.0000 O   0  0  0  0  0  0  0  0  0  0  0  0
    5.1766   -6.2508    0.0000 C   0  0  0  0  0  0  0  0  0  0  0  0
    6.5223   -5.5882    0.0000 C   0  0  0  0  0  0  0  0  0  0  0  0
    6.3859   -7.1385    0.0000 C   0  0  0  0  0  0  0  0  0  0  0  0
    4.4273   -4.9515    0.0000 O   0  0  0  0  0  0  0  0  0  0  0  0
    2.9598   -5.2626    0.0000 C   0  0  0  0  0  0  0  0  0  0  0  0
    1.5900   -4.6518    0.0000 C   0  0  0  0  0  0  0  0  0  0  0  0
    0.5856   -5.7659    0.0000 C   0  0  0  0  0  0  0  0  0  0  0  0
   -0.9145   -5.7653    0.0000 C   0  0  0  0  0  0  0  0  0  0  0  0
   -1.6637   -4.4658    0.0000 C   0  0  0  0  0  0  0  0  0  0  0  0
   -3.1638   -4.4651    0.0000 C   0  0  0  0  0  0  0  0  0  0  0  0
   -3.9144   -5.7637    0.0000 C   0  0  0  0  0  0  0  0  0  0  0  0
   -5.4143   -5.7629    0.0000 C   0  0  0  0  0  0  0  0  0  0  0  0
   -6.1649   -7.0616    0.0000 C   0  0  0  0  0  0  0  0  0  0  0  0
   -7.6650   -7.0608    0.0000 O   0  0  0  0  0  0  0  0  0  0  0  0
   -5.4157   -8.3610    0.0000 C   0  0  0  0  0  0  0  0  0  0  0  0
   -3.9158   -8.3617    0.0000 C   0  0  0  0  0  0  0  0  0  0  0  0
   -3.1649   -7.0631    0.0000 C   0  0  0  0  0  0  0  0  0  0  0  0
   -2.4157   -8.3627    0.0000 C   0  0  0  0  0  0  0  0  0  0  0  0
   -1.6651   -7.0638    0.0000 C   0  0  0  0  0  0  0  0  0  0  0  0
   -0.1650   -7.0648    0.0000 F   0  0  0  0  0  0  0  0  0  0  0  0
   -0.9156   -8.3633    0.0000 C   0  0  0  0  0  0  0  0  0  0  0  0
   -1.6665   -9.6620    0.0000 O   0  0  0  0  0  0  0  0  0  0  0  0
    0.5842   -8.3641    0.0000 C   0  0  0  0  0  0  0  0  0  0  0  0
    1.3351   -7.0654    0.0000 C   0  0  0  0  0  0  0  0  0  0  0  0
    2.1948   -8.2945    0.0000 C   0  0  0  0  0  0  0  0  0  0  0  0
  1  2  1  0  0  0  0
  2  3  1  0  0  0  0
  2  4  1  0  0  0  0
  2  5  1  0  0  0  0
  5  6  1  0  0  0  0
  6  7  2  0  0  0  0
  6  8  1  0  0  0  0
  8  9  1  0  0  0  0
  9 10  1  0  0  0  0
 10 11  2  0  0  0  0
 10 12  1  0  0  0  0
 13 12  1  0  0  0  0
 18 12  1  0  0  0  0
 12 37  1  0  0  0  0
 14 13  1  0  0  0  0
 14 15  1  0  0  0  0
 14 16  1  0  0  0  0
 17 14  1  0  0  0  0
 18 17  1  0  0  0  0
 19 18  1  0  0  0  0
 20 19  1  0  0  0  0
 21 20  1  0  0  0  0
 20 37  1  0  0  0  0
 22 21  1  0  0  0  0
 21 32  1  0  0  0  0
 23 22  1  0  0  0  0
 24 23  1  0  0  0  0
 25 24  2  0  0  0  0
 24 30  1  0  0  0  0
 26 25  1  0  0  0  0
 26 27  2  0  0  0  0
 28 26  1  0  0  0  0
 29 28  2  0  0  0  0
 30 29  1  0  0  0  0
 30 31  1  0  0  0  0
 32 30  1  0  0  0  0
 32 33  1  0  0  0  0
 34 32  1  0  0  0  0
 34 35  1  0  0  0  0
 36 34  1  0  0  0  0
 37 36  1  0  0  0  0
 37 38  1  0  0  0  0
M  END
> <Inchi_key>
TZIZWYVVGLXXFV-UHFFFAOYSA-N

> <Source>
Mulliner

> <ID>
HT2108

> <H_MFHB>
0

> <CAS>


> <Cholestasis>


> <Name>
triamcinolone hexacetonide

> <Class>
0

$$$$