
  -INDIGO-08031710012D

 21 24  0  0  0  0  0  0  0  0999 V2000
   11.4161   -5.9014    0.0000 C   0  0  0  0  0  0  0  0  0  0  0  0
    9.9221   -5.7680    0.0000 N   0  0  0  0  0  0  0  0  0  0  0  0
    9.2906   -4.4074    0.0000 C   0  0  0  0  0  0  0  0  0  0  0  0
    7.7964   -4.2740    0.0000 C   0  0  0  0  0  0  0  0  0  0  0  0
    7.1649   -2.9134    0.0000 C   0  0  0  0  0  0  0  0  0  0  0  0
    5.6709   -2.7800    0.0000 C   0  0  0  0  0  0  0  0  0  0  0  0
    6.4529   -4.0972    0.0000 C   0  0  0  0  0  0  0  0  0  0  0  0
    5.5554   -3.7162    0.0000 C   0  0  0  0  0  0  0  0  0  0  0  0
    4.3134   -1.6320    0.0000 C   0  0  0  0  0  0  0  0  0  0  0  0
    2.8416   -1.9845    0.0000 C   0  0  0  0  0  0  0  0  0  0  0  0
    1.4530   -2.0136    0.0000 C   0  0  0  0  0  0  0  0  0  0  0  0
    0.7852   -3.2245    0.0000 C   0  0  0  0  0  0  0  0  0  0  0  0
    1.5007   -4.4155    0.0000 C   0  0  0  0  0  0  0  0  0  0  0  0
    2.8883   -4.3961    0.0000 C   0  0  0  0  0  0  0  0  0  0  0  0
    3.5598   -3.1750    0.0000 C   0  0  0  0  0  0  0  0  0  0  0  0
    5.6151   -0.3440    0.0000 C   0  0  0  0  0  0  0  0  0  0  0  0
    6.2831    0.8660    0.0000 C   0  0  0  0  0  0  0  0  0  0  0  0
    7.6746    0.8968    0.0000 C   0  0  0  0  0  0  0  0  0  0  0  0
    8.3930   -0.2945    0.0000 C   0  0  0  0  0  0  0  0  0  0  0  0
    7.7192   -1.5151    0.0000 C   0  0  0  0  0  0  0  0  0  0  0  0
    6.3332   -1.5344    0.0000 C   0  0  0  0  0  0  0  0  0  0  0  0
  1  2  1  0  0  0  0
  2  3  1  0  0  0  0
  3  4  1  0  0  0  0
  4  5  1  0  0  0  0
  5  6  1  0  0  0  0
  7  6  1  0  0  0  0
 15  6  1  0  0  0  0
  6 21  1  0  0  0  0
  8  7  1  0  0  0  0
  9  8  1  0  0  0  0
  9 10  1  0  0  0  0
 16  9  1  0  0  0  0
 11 10  2  0  0  0  0
 10 15  1  0  0  0  0
 12 11  1  0  0  0  0
 13 12  2  0  0  0  0
 14 13  1  0  0  0  0
 15 14  2  0  0  0  0
 17 16  2  0  0  0  0
 16 21  1  0  0  0  0
 18 17  1  0  0  0  0
 19 18  2  0  0  0  0
 20 19  1  0  0  0  0
 21 20  2  0  0  0  0
M  END
> <Inchi_key>
QSLMDECMDJKHMQ-UHFFFAOYSA-N

> <Source>
Mulliner , Kotsampasakou

> <ID>
EK0312;HT1270

> <H_MFHB>
0

> <CAS>
10347-81-6

> <Cholestasis>
0

> <Name>
maprotiline hydrochloride;maprotiline

> <Class>
0

$$$$