
  -INDIGO-08031710012D

 21 24  0  0  0  0  0  0  0  0999 V2000
    5.0920    5.9109    0.0000 Cl  0  0  0  0  0  0  0  0  0  0  0  0
    4.1984    4.7061    0.0000 C   0  0  0  0  0  0  0  0  0  0  0  0
    2.7082    4.8776    0.0000 C   0  0  0  0  0  0  0  0  0  0  0  0
    1.8147    3.6729    0.0000 C   0  0  0  0  0  0  0  0  0  0  0  0
    2.4112    2.2965    0.0000 C   0  0  0  0  0  0  0  0  0  0  0  0
    3.9016    2.1251    0.0000 C   0  0  0  0  0  0  0  0  0  0  0  0
    4.7950    3.3299    0.0000 C   0  0  0  0  0  0  0  0  0  0  0  0
    4.6972    0.8535    0.0000 C   0  0  0  0  0  0  0  0  0  0  0  0
    4.1999   -0.5615    0.0000 N   0  0  0  0  0  0  0  0  0  0  0  0
    2.7835   -1.0545    0.0000 C   0  0  0  0  0  0  0  0  0  0  0  0
    1.5152   -0.2537    0.0000 C   0  0  0  0  0  0  0  0  0  0  0  0
    0.1484   -0.8720    0.0000 N   0  0  0  0  0  0  0  0  0  0  0  0
   -0.8619    0.2368    0.0000 N   0  0  0  0  0  0  0  0  0  0  0  0
   -0.1195    1.5402    0.0000 C   0  0  0  0  0  0  0  0  0  0  0  0
    1.3495    1.2370    0.0000 N   0  0  0  0  0  0  0  0  0  0  0  0
    6.1880    1.0191    0.0000 C   0  0  0  0  0  0  0  0  0  0  0  0
    6.7900    2.3930    0.0000 C   0  0  0  0  0  0  0  0  0  0  0  0
    8.2810    2.5586    0.0000 C   0  0  0  0  0  0  0  0  0  0  0  0
    9.1697    1.3503    0.0000 C   0  0  0  0  0  0  0  0  0  0  0  0
    8.5677   -0.0236    0.0000 C   0  0  0  0  0  0  0  0  0  0  0  0
    7.0767   -0.1892    0.0000 C   0  0  0  0  0  0  0  0  0  0  0  0
  1  2  1  0  0  0  0
  3  2  2  0  0  0  0
  2  7  1  0  0  0  0
  4  3  1  0  0  0  0
  5  4  2  0  0  0  0
  5  6  1  0  0  0  0
 15  5  1  0  0  0  0
  7  6  2  0  0  0  0
  6  8  1  0  0  0  0
  8  9  2  0  0  0  0
  8 16  1  0  0  0  0
  9 10  1  0  0  0  0
 10 11  1  0  0  0  0
 12 11  2  0  0  0  0
 11 15  1  0  0  0  0
 13 12  1  0  0  0  0
 14 13  2  0  0  0  0
 15 14  1  0  0  0  0
 17 16  2  0  0  0  0
 16 21  1  0  0  0  0
 18 17  1  0  0  0  0
 19 18  2  0  0  0  0
 20 19  1  0  0  0  0
 21 20  2  0  0  0  0
M  END
> <Inchi_key>
CDCHDCWJMGXXRH-UHFFFAOYSA-N

> <Source>
Mulliner , Kotsampasakou

> <ID>
EK0197;HT0789

> <H_MFHB>
0

> <CAS>
29975-16-4

> <Cholestasis>
0

> <Name>
estazolam

> <Class>
0

$$$$