
  -INDIGO-08031710012D

 52 57  0  0  0  0  0  0  0  0999 V2000
   -1.2854    7.0949    0.0000 C   0  0  0  0  0  0  0  0  0  0  0  0
   -0.5841    5.7819    0.0000 O   0  0  0  0  0  0  0  0  0  0  0  0
    0.9026    5.6054    0.0000 C   0  0  0  0  0  0  0  0  0  0  0  0
    1.8384    6.7216    0.0000 O   0  0  0  0  0  0  0  0  0  0  0  0
    1.4241    4.0967    0.0000 C   0  0  0  0  0  0  0  0  0  0  0  0
   -0.0797    3.9583    0.0000 C   0  0  0  0  0  0  0  0  0  0  0  0
   -0.9495    5.1967    0.0000 C   0  0  0  0  0  0  0  0  0  0  0  0
   -0.1931    6.5794    0.0000 C   0  0  0  0  0  0  0  0  0  0  0  0
    1.2378    6.6736    0.0000 C   0  0  0  0  0  0  0  0  0  0  0  0
    2.8457    6.4071    0.0000 C   0  0  0  0  0  0  0  0  0  0  0  0
    3.3974    7.4532    0.0000 C   0  0  0  0  0  0  0  0  0  0  0  0
    4.7057    7.6131    0.0000 C   0  0  0  0  0  0  0  0  0  0  0  0
    5.8444    6.6609    0.0000 N   0  0  0  0  0  0  0  0  0  0  0  0
    7.0469    7.5229    0.0000 C   0  0  0  0  0  0  0  0  0  0  0  0
    8.3838    7.3214    0.0000 C   0  0  0  0  0  0  0  0  0  0  0  0
    8.0129    6.0241    0.0000 C   0  0  0  0  0  0  0  0  0  0  0  0
    6.7647    5.2525    0.0000 N   0  0  0  0  0  0  0  0  0  0  0  0
    7.1397    3.8288    0.0000 C   0  0  0  0  0  0  0  0  0  0  0  0
    6.5468    2.6292    0.0000 C   0  0  0  0  0  0  0  0  0  0  0  0
    5.2053    2.6518    0.0000 C   0  0  0  0  0  0  0  0  0  0  0  0
    4.1117    3.6276    0.0000 N   0  0  0  0  0  0  0  0  0  0  0  0
    2.8546    2.8712    0.0000 C   0  0  0  0  0  0  0  0  0  0  0  0
    1.5277    3.1262    0.0000 C   0  0  0  0  0  0  0  0  0  0  0  0
    2.6620    4.0254    0.0000 C   0  0  0  0  0  0  0  0  0  0  0  0
    3.6336    5.1795    0.0000 N   0  0  0  0  0  0  0  0  0  0  0  0
    2.1057    5.3808    0.0000 C   0  0  0  0  0  0  0  0  0  0  0  0
    0.6767    4.9528    0.0000 C   0  0  0  0  0  0  0  0  0  0  0  0
    3.1214    1.4233    0.0000 C   0  0  0  0  0  0  0  0  0  0  0  0
    2.1076    0.3146    0.0000 C   0  0  0  0  0  0  0  0  0  0  0  0
    4.6639    1.2717    0.0000 C   0  0  0  0  0  0  0  0  0  0  0  0
    5.4557   -0.0006    0.0000 C   0  0  0  0  0  0  0  0  0  0  0  0
    4.7517   -1.3249    0.0000 C   0  0  0  0  0  0  0  0  0  0  0  0
    5.5465   -2.5973    0.0000 C   0  0  0  0  0  0  0  0  0  0  0  0
    7.0457   -2.5450    0.0000 O   0  0  0  0  0  0  0  0  0  0  0  0
    4.8422   -3.9216    0.0000 O   0  0  0  0  0  0  0  0  0  0  0  0
    8.6166    3.6838    0.0000 C   0  0  0  0  0  0  0  0  0  0  0  0
    9.1829    5.1249    0.0000 C   0  0  0  0  0  0  0  0  0  0  0  0
   10.6330    5.5225    0.0000 C   0  0  0  0  0  0  0  0  0  0  0  0
    9.3924    2.4033    0.0000 C   0  0  0  0  0  0  0  0  0  0  0  0
   10.8921    2.4296    0.0000 C   0  0  0  0  0  0  0  0  0  0  0  0
   11.6652    1.1444    0.0000 C   0  0  0  0  0  0  0  0  0  0  0  0
   13.1651    1.1712    0.0000 O   0  0  0  0  0  0  0  0  0  0  0  0
   10.9387   -0.1680    0.0000 O   0  0  0  0  0  0  0  0  0  0  0  0
    6.7046    8.9416    0.0000 C   0  0  0  0  0  0  0  0  0  0  0  0
    7.6576   10.1019    0.0000 C   0  0  0  0  0  0  0  0  0  0  0  0
    7.1280   11.5051    0.0000 C   0  0  0  0  0  0  0  0  0  0  0  0
    5.1454    9.0318    0.0000 C   0  0  0  0  0  0  0  0  0  0  0  0
    4.2969   10.2667    0.0000 C   0  0  0  0  0  0  0  0  0  0  0  0
   -0.2494    2.4736    0.0000 C   0  0  0  0  0  0  0  0  0  0  0  0
    0.9216    1.5547    0.0000 O   0  0  0  0  0  0  0  0  0  0  0  0
   -1.6510    1.8941    0.0000 O   0  0  0  0  0  0  0  0  0  0  0  0
   -1.8195    0.4036    0.0000 C   0  0  0  0  0  0  0  0  0  0  0  0
  1  2  1  0  0  0  0
  2  3  1  0  0  0  0
  3  4  2  0  0  0  0
  3  5  1  0  0  0  0
  6  5  1  0  0  0  0
  5 26  1  0  0  0  0
  7  6  2  0  0  0  0
  6 49  1  0  0  0  0
  8  7  1  0  0  0  0
  9  8  2  0  0  0  0
 10  9  1  0  0  0  0
  9 26  1  0  0  0  0
 10 11  1  0  0  0  0
 25 10  2  0  0  0  0
 11 12  2  0  0  0  0
 13 12  1  0  0  0  0
 12 47  1  0  0  0  0
 14 13  1  0  0  0  0
 14 15  2  0  0  0  0
 44 14  1  0  0  0  0
 15 16  1  0  0  0  0
 17 16  1  0  0  0  0
 16 37  2  0  0  0  0
 18 17  1  0  0  0  0
 18 19  1  0  0  0  0
 36 18  2  0  0  0  0
 19 20  2  0  0  0  0
 21 20  1  0  0  0  0
 20 30  1  0  0  0  0
 22 21  2  0  0  0  0
 22 23  1  0  0  0  0
 28 22  1  0  0  0  0
 23 24  2  0  0  0  0
 24 25  1  0  0  0  0
 26 24  1  0  0  0  0
 26 27  1  0  0  0  0
 28 29  1  0  0  0  0
 30 28  2  0  0  0  0
 30 31  1  0  0  0  0
 31 32  1  0  0  0  0
 32 33  1  0  0  0  0
 33 34  2  0  0  0  0
 33 35  1  0  0  0  0
 37 36  1  0  0  0  0
 36 39  1  0  0  0  0
 37 38  1  0  0  0  0
 39 40  1  0  0  0  0
 40 41  1  0  0  0  0
 41 42  2  0  0  0  0
 41 43  1  0  0  0  0
 44 45  1  0  0  0  0
 47 44  2  0  0  0  0
 45 46  2  0  0  0  0
 47 48  1  0  0  0  0
 49 50  2  0  0  0  0
 49 51  1  0  0  0  0
 51 52  1  0  0  0  0
M  END
> <Inchi_key>
XSIPFCGQYNQFQQ-PYAKOERVSA-N

> <Source>
Mulliner

> <ID>
HT3991

> <H_MFHB>
0

> <CAS>


> <Cholestasis>


> <Name>


> <Class>
0

$$$$