
  -INDIGO-08031710012D

 31 35  0  0  0  0  0  0  0  0999 V2000
   -0.3055   -4.5870    0.0000 C   0  0  0  0  0  0  0  0  0  0  0  0
   -1.6098   -3.8463    0.0000 O   0  0  0  0  0  0  0  0  0  0  0  0
   -1.6205   -2.3464    0.0000 C   0  0  0  0  0  0  0  0  0  0  0  0
   -0.3359   -3.1119    0.0000 C   0  0  0  0  0  0  0  0  0  0  0  0
    0.9682   -2.3708    0.0000 C   0  0  0  0  0  0  0  0  0  0  0  0
    2.2622   -3.1296    0.0000 C   0  0  0  0  0  0  0  0  0  0  0  0
    3.5662   -2.3884    0.0000 O   0  0  0  0  0  0  0  0  0  0  0  0
    4.8600   -3.1473    0.0000 C   0  0  0  0  0  0  0  0  0  0  0  0
    4.8498   -4.6473    0.0000 O   0  0  0  0  0  0  0  0  0  0  0  0
    6.1643   -2.4062    0.0000 C   0  0  0  0  0  0  0  0  0  0  0  0
    6.1745   -0.9062    0.0000 C   0  0  0  0  0  0  0  0  0  0  0  0
    7.4785   -0.1651    0.0000 N   0  0  0  0  0  0  0  0  0  0  0  0
    8.7726   -0.9240    0.0000 C   0  0  0  0  0  0  0  0  0  0  0  0
    8.7624   -2.4239    0.0000 C   0  0  0  0  0  0  0  0  0  0  0  0
   10.0562   -3.1828    0.0000 Br  0  0  0  0  0  0  0  0  0  0  0  0
    7.4581   -3.1651    0.0000 C   0  0  0  0  0  0  0  0  0  0  0  0
    0.9806   -0.8693    0.0000 C   0  0  0  0  0  0  0  0  0  0  0  0
   -0.3132   -0.1105    0.0000 N   0  0  0  0  0  0  0  0  0  0  0  0
   -0.3146    1.3895    0.0000 C   0  0  0  0  0  0  0  0  0  0  0  0
   -1.6258   -0.8840    0.0000 C   0  0  0  0  0  0  0  0  0  0  0  0
   -2.9036   -0.1583    0.0000 C   0  0  0  0  0  0  0  0  0  0  0  0
   -4.1731   -0.9030    0.0000 C   0  0  0  0  0  0  0  0  0  0  0  0
   -5.6325   -0.5204    0.0000 C   0  0  0  0  0  0  0  0  0  0  0  0
   -6.5597   -2.1397    0.0000 N   0  0  0  0  0  0  0  0  0  0  0  0
   -8.0379   -2.3939    0.0000 C   0  0  0  0  0  0  0  0  0  0  0  0
   -5.4241   -3.1142    0.0000 C   0  0  0  0  0  0  0  0  0  0  0  0
   -5.4094   -4.5785    0.0000 C   0  0  0  0  0  0  0  0  0  0  0  0
   -4.1322   -5.3008    0.0000 C   0  0  0  0  0  0  0  0  0  0  0  0
   -2.8738   -4.5562    0.0000 C   0  0  0  0  0  0  0  0  0  0  0  0
   -2.8790   -3.0910    0.0000 C   0  0  0  0  0  0  0  0  0  0  0  0
   -4.1576   -2.3708    0.0000 C   0  0  0  0  0  0  0  0  0  0  0  0
  1  2  1  0  0  0  0
  2  3  1  0  0  0  0
  4  3  1  0  0  0  0
 20  3  1  0  0  0  0
  3 30  1  0  0  0  0
  5  4  1  0  0  0  0
  5  6  1  0  0  0  0
 17  5  1  0  0  0  0
  6  7  1  0  0  0  0
  7  8  1  0  0  0  0
  8  9  2  0  0  0  0
  8 10  1  0  0  0  0
 11 10  2  0  0  0  0
 10 16  1  0  0  0  0
 12 11  1  0  0  0  0
 13 12  2  0  0  0  0
 14 13  1  0  0  0  0
 14 15  1  0  0  0  0
 16 14  2  0  0  0  0
 18 17  1  0  0  0  0
 18 19  1  0  0  0  0
 20 18  1  0  0  0  0
 21 20  1  0  0  0  0
 22 21  1  0  0  0  0
 23 22  2  0  0  0  0
 22 31  1  0  0  0  0
 24 23  1  0  0  0  0
 24 25  1  0  0  0  0
 26 24  1  0  0  0  0
 26 27  1  0  0  0  0
 31 26  2  0  0  0  0
 27 28  2  0  0  0  0
 28 29  1  0  0  0  0
 29 30  2  0  0  0  0
 30 31  1  0  0  0  0
M  END
> <Inchi_key>
YSEXMKHXIOCEJA-UHFFFAOYSA-N

> <Source>
Mulliner

> <ID>
HT1484

> <H_MFHB>
0

> <CAS>


> <Cholestasis>


> <Name>
nicergoline

> <Class>
0

$$$$