
  -INDIGO-08031709442D

 42 47  0  0  0  0  0  0  0  0999 V2000
   -0.2399   -0.6206    0.0000 O   0  0  0  0  0  0  0  0  0  0  0  0
   -1.7014   -0.9590    0.0000 C   0  0  0  0  0  0  0  0  0  0  0  0
   -2.8341    0.0243    0.0000 C   0  0  0  0  0  0  0  0  0  0  0  0
   -2.5488    1.4970    0.0000 O   0  0  0  0  0  0  0  0  0  0  0  0
   -3.6814    2.4803    0.0000 C   0  0  0  0  0  0  0  0  0  0  0  0
   -5.0996    1.9912    0.0000 O   0  0  0  0  0  0  0  0  0  0  0  0
   -3.3962    3.9530    0.0000 C   0  0  0  0  0  0  0  0  0  0  0  0
   -4.5288    4.9363    0.0000 C   0  0  0  0  0  0  0  0  0  0  0  0
   -6.0177    4.7526    0.0000 N   0  0  0  0  0  0  0  0  0  0  0  0
   -6.7439    3.4401    0.0000 C   0  0  0  0  0  0  0  0  0  0  0  0
   -8.2439    3.4129    0.0000 C   0  0  0  0  0  0  0  0  0  0  0  0
   -8.9701    2.1006    0.0000 C   0  0  0  0  0  0  0  0  0  0  0  0
  -10.4698    2.0734    0.0000 C   0  0  0  0  0  0  0  0  0  0  0  0
  -11.2432    3.3587    0.0000 C   0  0  0  0  0  0  0  0  0  0  0  0
  -10.5170    4.6712    0.0000 C   0  0  0  0  0  0  0  0  0  0  0  0
   -9.0173    4.6981    0.0000 C   0  0  0  0  0  0  0  0  0  0  0  0
  -12.7430    3.3315    0.0000 C   0  0  0  0  0  0  0  0  0  0  0  0
  -13.5163    4.6167    0.0000 C   0  0  0  0  0  0  0  0  0  0  0  0
  -15.0161    4.5896    0.0000 C   0  0  0  0  0  0  0  0  0  0  0  0
  -15.7425    3.2772    0.0000 C   0  0  0  0  0  0  0  0  0  0  0  0
  -14.9692    1.9920    0.0000 C   0  0  0  0  0  0  0  0  0  0  0  0
  -13.4694    2.0192    0.0000 C   0  0  0  0  0  0  0  0  0  0  0  0
  -12.6960    0.7339    0.0000 C   0  0  0  0  0  0  0  0  0  0  0  0
  -13.2812   -0.6474    0.0000 N   0  0  0  0  0  0  0  0  0  0  0  0
  -12.1486   -1.6306    0.0000 C   0  0  0  0  0  0  0  0  0  0  0  0
  -10.8633   -0.8572    0.0000 O   0  0  0  0  0  0  0  0  0  0  0  0
  -11.2017    0.6041    0.0000 N   0  0  0  0  0  0  0  0  0  0  0  0
  -12.2782   -3.1250    0.0000 O   0  0  0  0  0  0  0  0  0  0  0  0
   -6.6525    6.1116    0.0000 C   0  0  0  0  0  0  0  0  0  0  0  0
   -8.1251    6.3968    0.0000 O   0  0  0  0  0  0  0  0  0  0  0  0
   -8.6143    7.8147    0.0000 C   0  0  0  0  0  0  0  0  0  0  0  0
  -10.0870    8.1001    0.0000 C   0  0  0  0  0  0  0  0  0  0  0  0
   -5.5562    7.1353    0.0000 N   0  0  0  0  0  0  0  0  0  0  0  0
   -4.2438    6.4089    0.0000 C   0  0  0  0  0  0  0  0  0  0  0  0
   -2.8256    6.8982    0.0000 C   0  0  0  0  0  0  0  0  0  0  0  0
   -1.6930    5.9149    0.0000 C   0  0  0  0  0  0  0  0  0  0  0  0
   -1.9783    4.4422    0.0000 C   0  0  0  0  0  0  0  0  0  0  0  0
   -1.8310   -2.4534    0.0000 C   0  0  0  0  0  0  0  0  0  0  0  0
   -0.4500   -3.0386    0.0000 O   0  0  0  0  0  0  0  0  0  0  0  0
    0.5335   -1.9060    0.0000 C   0  0  0  0  0  0  0  0  0  0  0  0
    2.0278   -2.0356    0.0000 O   0  0  0  0  0  0  0  0  0  0  0  0
   -3.1163   -3.2268    0.0000 C   0  0  0  0  0  0  0  0  0  0  0  0
  2  1  1  0  0  0  0
  1 40  1  0  0  0  0
  2  3  1  0  0  0  0
 38  2  2  0  0  0  0
  3  4  1  0  0  0  0
  4  5  1  0  0  0  0
  5  6  2  0  0  0  0
  5  7  1  0  0  0  0
  8  7  2  0  0  0  0
  7 37  1  0  0  0  0
  9  8  1  0  0  0  0
  8 34  1  0  0  0  0
  9 10  1  0  0  0  0
 29  9  1  0  0  0  0
 10 11  1  0  0  0  0
 12 11  2  0  0  0  0
 11 16  1  0  0  0  0
 13 12  1  0  0  0  0
 14 13  2  0  0  0  0
 15 14  1  0  0  0  0
 14 17  1  0  0  0  0
 16 15  2  0  0  0  0
 18 17  2  0  0  0  0
 17 22  1  0  0  0  0
 19 18  1  0  0  0  0
 20 19  2  0  0  0  0
 21 20  1  0  0  0  0
 22 21  2  0  0  0  0
 22 23  1  0  0  0  0
 24 23  1  0  0  0  0
 23 27  2  0  0  0  0
 25 24  1  0  0  0  0
 26 25  1  0  0  0  0
 25 28  2  0  0  0  0
 27 26  1  0  0  0  0
 29 30  1  0  0  0  0
 33 29  2  0  0  0  0
 30 31  1  0  0  0  0
 31 32  1  0  0  0  0
 34 33  1  0  0  0  0
 35 34  2  0  0  0  0
 36 35  1  0  0  0  0
 37 36  2  0  0  0  0
 39 38  1  0  0  0  0
 38 42  1  0  0  0  0
 40 39  1  0  0  0  0
 40 41  2  0  0  0  0
M  END
> <Inchi_key>
QJFSABGVXDWMIW-UHFFFAOYSA-N

> <Source>
Kotsampasakou

> <ID>
EK0048

> <H_MFHB>


> <CAS>


> <Cholestasis>
0

> <Name>
azilsartan

> <Class>
0

$$$$