

  -INDIGO-08031710012D

 12 12  0  0  0  0  0  0  0  0999 V2000
    9.2921   -2.4898    0.0000 C   0  0  0  0  0  0  0  0  0  0  0  0
    7.9931   -3.2398    0.0000 N   0  0  0  0  0  0  0  0  0  0  0  0
    6.6941   -2.4898    0.0000 C   0  0  0  0  0  0  0  0  0  0  0  0
    5.3949   -3.2398    0.0000 C   0  0  0  0  0  0  0  0  0  0  0  0
    5.3949   -4.7398    0.0000 O   0  0  0  0  0  0  0  0  0  0  0  0
    4.0961   -2.4898    0.0000 C   0  0  0  0  0  0  0  0  0  0  0  0
    4.0961   -0.9898    0.0000 C   0  0  0  0  0  0  0  0  0  0  0  0
    2.7971   -0.2398    0.0000 C   0  0  0  0  0  0  0  0  0  0  0  0
    1.4979   -0.9898    0.0000 C   0  0  0  0  0  0  0  0  0  0  0  0
    1.4979   -2.4898    0.0000 C   0  0  0  0  0  0  0  0  0  0  0  0
    0.1989   -3.2398    0.0000 O   0  0  0  0  0  0  0  0  0  0  0  0
    2.7971   -3.2398    0.0000 C   0  0  0  0  0  0  0  0  0  0  0  0
  1  2  1  0  0  0  0
  2  3  1  0  0  0  0
  3  4  1  0  0  0  0
  4  5  1  0  0  0  0
  4  6  1  0  0  0  0
  7  6  2  0  0  0  0
  6 12  1  0  0  0  0
  8  7  1  0  0  0  0
  9  8  2  0  0  0  0
 10  9  1  0  0  0  0
 10 11  1  0  0  0  0
 12 10  2  0  0  0  0
M  END
> <Inchi_key>
SONNWYBIRXJNDC-UHFFFAOYSA-N

> <Source>
Mulliner

> <ID>
HT1661

> <H_MFHB>
0

> <CAS>


> <Cholestasis>


> <Name>
phenylephrine

> <Class>
0


$$$$