

  -INDIGO-08031710012D

 20 21  0  0  0  0  0  0  0  0999 V2000
    8.2784    8.2488    0.0000 C   0  0  0  0  0  0  0  0  0  0  0  0
    8.2728    6.7488    0.0000 C   0  0  0  0  0  0  0  0  0  0  0  0
    6.9711    6.0035    0.0000 C   0  0  0  0  0  0  0  0  0  0  0  0
    6.9660    4.5035    0.0000 C   0  0  0  0  0  0  0  0  0  0  0  0
    8.2623    3.7489    0.0000 C   0  0  0  0  0  0  0  0  0  0  0  0
    9.5640    4.4942    0.0000 C   0  0  0  0  0  0  0  0  0  0  0  0
   10.8603    3.7396    0.0000 C   0  0  0  0  0  0  0  0  0  0  0  0
    5.6643    3.7581    0.0000 C   0  0  0  0  0  0  0  0  0  0  0  0
    5.6587    2.2581    0.0000 O   0  0  0  0  0  0  0  0  0  0  0  0
    4.3678    4.5127    0.0000 O   0  0  0  0  0  0  0  0  0  0  0  0
    3.0661    3.7674    0.0000 C   0  0  0  0  0  0  0  0  0  0  0  0
    1.8420    3.5626    0.0000 C   0  0  0  0  0  0  0  0  0  0  0  0
    0.2921    4.4649    0.0000 C   0  0  0  0  0  0  0  0  0  0  0  0
    0.1307    6.0824    0.0000 C   0  0  0  0  0  0  0  0  0  0  0  0
    0.7693    4.9111    0.0000 C   0  0  0  0  0  0  0  0  0  0  0  0
    0.6253    3.4785    0.0000 C   0  0  0  0  0  0  0  0  0  0  0  0
    2.0871    2.5966    0.0000 C   0  0  0  0  0  0  0  0  0  0  0  0
   -0.6768    3.2956    0.0000 N   0  0  0  0  0  0  0  0  0  0  0  0
   -2.1456    3.6005    0.0000 C   0  0  0  0  0  0  0  0  0  0  0  0
   -1.2648    1.9156    0.0000 C   0  0  0  0  0  0  0  0  0  0  0  0
  1  2  1  0  0  0  0
  2  3  1  0  0  0  0
  3  4  1  0  0  0  0
  4  5  1  0  0  0  0
  4  8  1  0  0  0  0
  5  6  1  0  0  0  0
  6  7  1  0  0  0  0
  8  9  2  0  0  0  0
  8 10  1  0  0  0  0
 10 11  1  0  0  0  0
 12 11  1  0  0  0  0
 11 17  1  0  0  0  0
 13 12  1  0  0  0  0
 13 14  1  0  0  0  0
 18 13  1  0  0  0  0
 14 15  1  0  0  0  0
 15 16  1  0  0  0  0
 17 16  1  0  0  0  0
 16 18  1  0  0  0  0
 18 19  1  0  0  0  0
 18 20  1  0  0  0  0
M  CHG  1  18   1
M  END
> <Inchi_key>
XGGHHHBGPSNXFE-UHFFFAOYSA-N

> <Source>
Mulliner

> <ID>
HT0163

> <H_MFHB>
0

> <CAS>


> <Cholestasis>


> <Name>
anisotropine methylbromide;anisotropine

> <Class>
0


$$$$