
  -INDIGO-08031710012D

 23 25  0  0  0  0  0  0  0  0999 V2000
    0.0000    4.2925    0.0000 O   0  0  0  0  0  0  0  0  0  0  0  0
    1.5001    4.2925    0.0000 C   0  0  0  0  0  0  0  0  0  0  0  0
    2.2500    5.5915    0.0000 O   0  0  0  0  0  0  0  0  0  0  0  0
    2.2500    2.9934    0.0000 C   0  0  0  0  0  0  0  0  0  0  0  0
    3.7500    2.9934    0.0000 C   0  0  0  0  0  0  0  0  0  0  0  0
    4.5001    1.6944    0.0000 C   0  0  0  0  0  0  0  0  0  0  0  0
    3.7500    0.3954    0.0000 O   0  0  0  0  0  0  0  0  0  0  0  0
    6.0001    1.6944    0.0000 N   0  0  0  0  0  0  0  0  0  0  0  0
    6.8818    0.4809    0.0000 C   0  0  0  0  0  0  0  0  0  0  0  0
    8.3084    0.9444    0.0000 C   0  0  0  0  0  0  0  0  0  0  0  0
    9.6072    0.1944    0.0000 C   0  0  0  0  0  0  0  0  0  0  0  0
   10.9063    0.9444    0.0000 C   0  0  0  0  0  0  0  0  0  0  0  0
   10.9063    2.4444    0.0000 C   0  0  0  0  0  0  0  0  0  0  0  0
    9.6072    3.1944    0.0000 C   0  0  0  0  0  0  0  0  0  0  0  0
    8.3084    2.4444    0.0000 C   0  0  0  0  0  0  0  0  0  0  0  0
    6.8818    2.9079    0.0000 C   0  0  0  0  0  0  0  0  0  0  0  0
    1.5001    1.6944    0.0000 C   0  0  0  0  0  0  0  0  0  0  0  0
    0.0000    1.6944    0.0000 C   0  0  0  0  0  0  0  0  0  0  0  0
   -0.7501    2.9934    0.0000 C   0  0  0  0  0  0  0  0  0  0  0  0
   -2.2501    2.9934    0.0000 C   0  0  0  0  0  0  0  0  0  0  0  0
   -3.0000    1.6944    0.0000 C   0  0  0  0  0  0  0  0  0  0  0  0
   -2.2501    0.3954    0.0000 C   0  0  0  0  0  0  0  0  0  0  0  0
   -0.7501    0.3954    0.0000 C   0  0  0  0  0  0  0  0  0  0  0  0
  1  2  1  0  0  0  0
  2  3  2  0  0  0  0
  2  4  1  0  0  0  0
  4  5  1  0  0  0  0
  4 17  1  0  0  0  0
  5  6  1  0  0  0  0
  6  7  2  0  0  0  0
  6  8  1  0  0  0  0
  9  8  1  0  0  0  0
  8 16  1  0  0  0  0
 10  9  1  0  0  0  0
 11 10  1  0  0  0  0
 10 15  1  0  0  0  0
 12 11  1  0  0  0  0
 13 12  1  0  0  0  0
 14 13  1  0  0  0  0
 15 14  1  0  0  0  0
 16 15  1  0  0  0  0
 17 18  1  0  0  0  0
 19 18  2  0  0  0  0
 18 23  1  0  0  0  0
 20 19  1  0  0  0  0
 21 20  2  0  0  0  0
 22 21  1  0  0  0  0
 23 22  2  0  0  0  0
M  END
> <Inchi_key>
WPGGHFDDFPHPOB-UHFFFAOYSA-N

> <Source>
Mulliner

> <ID>
HT1413

> <H_MFHB>
0

> <CAS>


> <Cholestasis>


> <Name>
mitiglinide

> <Class>
0

$$$$