

  -INDIGO-08031710012D

 13 14  0  0  0  0  0  0  0  0999 V2000
    1.7001    4.2259    0.0000 C   0  0  0  0  0  0  0  0  0  0  0  0
    1.3665    2.7635    0.0000 C   0  0  0  0  0  0  0  0  0  0  0  0
   -0.0956    2.4286    0.0000 C   0  0  0  0  0  0  0  0  0  0  0  0
   -0.7461    1.0770    0.0000 N   0  0  0  0  0  0  0  0  0  0  0  0
   -0.0956   -0.2746    0.0000 C   0  0  0  0  0  0  0  0  0  0  0  0
    1.3665   -0.6095    0.0000 C   0  0  0  0  0  0  0  0  0  0  0  0
    2.5388    0.3277    0.0000 C   0  0  0  0  0  0  0  0  0  0  0  0
    3.8380   -0.4223    0.0000 C   0  0  0  0  0  0  0  0  0  0  0  0
    5.1369    0.3277    0.0000 C   0  0  0  0  0  0  0  0  0  0  0  0
    5.1369    1.8277    0.0000 C   0  0  0  0  0  0  0  0  0  0  0  0
    6.4359    2.5777    0.0000 Cl  0  0  0  0  0  0  0  0  0  0  0  0
    3.8380    2.5777    0.0000 C   0  0  0  0  0  0  0  0  0  0  0  0
    2.5388    1.8277    0.0000 C   0  0  0  0  0  0  0  0  0  0  0  0
  1  2  1  0  0  0  0
  3  2  1  0  0  0  0
  2 13  1  0  0  0  0
  4  3  1  0  0  0  0
  5  4  1  0  0  0  0
  6  5  1  0  0  0  0
  7  6  1  0  0  0  0
  8  7  2  0  0  0  0
  7 13  1  0  0  0  0
  9  8  1  0  0  0  0
 10  9  2  0  0  0  0
 10 11  1  0  0  0  0
 12 10  1  0  0  0  0
 13 12  2  0  0  0  0
M  END
> <Inchi_key>
XTTZERNUQAFMOF-UHFFFAOYSA-N

> <Source>
Mulliner

> <ID>
HT1239

> <H_MFHB>
0

> <CAS>


> <Cholestasis>


> <Name>
lorcaserin hydrochloride

> <Class>
0


$$$$