

  -INDIGO-08031710012D

 33 35  0  0  0  0  0  0  0  0999 V2000
    5.2150    9.0328    0.0000 C   0  0  0  0  0  0  0  0  0  0  0  0
    5.9651    7.7338    0.0000 C   0  0  0  0  0  0  0  0  0  0  0  0
    5.2150    6.4347    0.0000 N   0  0  0  0  0  0  0  0  0  0  0  0
    5.9651    5.1357    0.0000 C   0  0  0  0  0  0  0  0  0  0  0  0
    7.4652    5.1357    0.0000 C   0  0  0  0  0  0  0  0  0  0  0  0
    8.2150    3.8368    0.0000 C   0  0  0  0  0  0  0  0  0  0  0  0
    9.7152    3.8368    0.0000 N   0  0  0  0  0  0  0  0  0  0  0  0
    7.4652    2.5376    0.0000 C   0  0  0  0  0  0  0  0  0  0  0  0
    8.2150    1.2387    0.0000 O   0  0  0  0  0  0  0  0  0  0  0  0
    9.7152    1.2387    0.0000 C   0  0  0  0  0  0  0  0  0  0  0  0
   10.4650    2.5376    0.0000 O   0  0  0  0  0  0  0  0  0  0  0  0
   11.9651    2.5376    0.0000 C   0  0  0  0  0  0  0  0  0  0  0  0
   12.7152    1.2387    0.0000 C   0  0  0  0  0  0  0  0  0  0  0  0
   11.9651   -0.0604    0.0000 C   0  0  0  0  0  0  0  0  0  0  0  0
   10.4650   -0.0604    0.0000 C   0  0  0  0  0  0  0  0  0  0  0  0
    9.7152   -1.3596    0.0000 N   0  0  0  0  0  0  0  0  0  0  0  0
   12.7152    3.8368    0.0000 C   0  0  0  0  0  0  0  0  0  0  0  0
   14.2151    3.8368    0.0000 N   0  0  0  0  0  0  0  0  0  0  0  0
    5.9651    2.5376    0.0000 C   0  0  0  0  0  0  0  0  0  0  0  0
    5.2150    1.2387    0.0000 O   0  0  0  0  0  0  0  0  0  0  0  0
    5.2150    3.8368    0.0000 C   0  0  0  0  0  0  0  0  0  0  0  0
    3.7151    3.8368    0.0000 O   0  0  0  0  0  0  0  0  0  0  0  0
    2.9650    2.5376    0.0000 C   0  0  0  0  0  0  0  0  0  0  0  0
    3.7151    1.2387    0.0000 O   0  0  0  0  0  0  0  0  0  0  0  0
    2.9650   -0.0604    0.0000 C   0  0  0  0  0  0  0  0  0  0  0  0
    1.4651   -0.0604    0.0000 C   0  0  0  0  0  0  0  0  0  0  0  0
    0.1662   -0.8105    0.0000 C   0  0  0  0  0  0  0  0  0  0  0  0
    1.4651   -1.5605    0.0000 O   0  0  0  0  0  0  0  0  0  0  0  0
    0.7151    1.2387    0.0000 C   0  0  0  0  0  0  0  0  0  0  0  0
   -0.7848    1.2387    0.0000 N   0  0  0  0  0  0  0  0  0  0  0  0
   -1.5349    2.5376    0.0000 C   0  0  0  0  0  0  0  0  0  0  0  0
    1.4651    2.5376    0.0000 C   0  0  0  0  0  0  0  0  0  0  0  0
    0.7151    3.8368    0.0000 O   0  0  0  0  0  0  0  0  0  0  0  0
  1  2  1  0  0  0  0
  2  3  1  0  0  0  0
  3  4  1  0  0  0  0
  5  4  1  0  0  0  0
  4 21  1  0  0  0  0
  6  5  1  0  0  0  0
  6  7  1  0  0  0  0
  8  6  1  0  0  0  0
  8  9  1  0  0  0  0
 19  8  1  0  0  0  0
  9 10  1  0  0  0  0
 11 10  1  0  0  0  0
 10 15  1  0  0  0  0
 12 11  1  0  0  0  0
 13 12  2  0  0  0  0
 12 17  1  0  0  0  0
 14 13  1  0  0  0  0
 15 14  1  0  0  0  0
 15 16  1  0  0  0  0
 17 18  1  0  0  0  0
 19 20  1  0  0  0  0
 21 19  1  0  0  0  0
 21 22  1  0  0  0  0
 22 23  1  0  0  0  0
 24 23  1  0  0  0  0
 23 32  1  0  0  0  0
 25 24  1  0  0  0  0
 26 25  1  0  0  0  0
 26 27  1  0  0  0  0
 26 28  1  0  0  0  0
 29 26  1  0  0  0  0
 29 30  1  0  0  0  0
 32 29  1  0  0  0  0
 30 31  1  0  0  0  0
 32 33  1  0  0  0  0
M  END
> <Inchi_key>
CIDUJQMULVCIBT-UHFFFAOYSA-N

> <Source>
Mulliner

> <ID>
HT1478

> <H_MFHB>
0

> <CAS>


> <Cholestasis>


> <Name>
netilmicin sulfate;netilmicin

> <Class>
0


$$$$