
  -INDIGO-08031709442D

 43 44  0  0  0  0  0  0  0  0999 V2000
   -2.3681    2.3681    0.0000 I   0  0  0  0  0  0  0  0  0  0  0  0
   -2.3681    3.8681    0.0000 C   0  0  0  0  0  0  0  0  0  0  0  0
   -1.0690    4.6181    0.0000 C   0  0  0  0  0  0  0  0  0  0  0  0
    0.2300    3.8681    0.0000 C   0  0  0  0  0  0  0  0  0  0  0  0
    0.2300    2.3681    0.0000 O   0  0  0  0  0  0  0  0  0  0  0  0
    1.5290    4.6181    0.0000 N   0  0  0  0  0  0  0  0  0  0  0  0
    2.8281    3.8681    0.0000 C   0  0  0  0  0  0  0  0  0  0  0  0
    4.1271    4.6181    0.0000 C   0  0  0  0  0  0  0  0  0  0  0  0
    4.1271    6.1182    0.0000 O   0  0  0  0  0  0  0  0  0  0  0  0
    5.4262    3.8681    0.0000 N   0  0  0  0  0  0  0  0  0  0  0  0
    6.7252    4.6181    0.0000 C   0  0  0  0  0  0  0  0  0  0  0  0
    8.0243    3.8681    0.0000 C   0  0  0  0  0  0  0  0  0  0  0  0
    8.0243    2.3681    0.0000 I   0  0  0  0  0  0  0  0  0  0  0  0
    9.3233    4.6181    0.0000 C   0  0  0  0  0  0  0  0  0  0  0  0
   10.6223    3.8681    0.0000 C   0  0  0  0  0  0  0  0  0  0  0  0
   10.6223    2.3681    0.0000 O   0  0  0  0  0  0  0  0  0  0  0  0
   11.9214    4.6181    0.0000 N   0  0  0  0  0  0  0  0  0  0  0  0
   13.2204    3.8681    0.0000 C   0  0  0  0  0  0  0  0  0  0  0  0
   14.5195    4.6181    0.0000 C   0  0  0  0  0  0  0  0  0  0  0  0
   15.8185    3.8681    0.0000 O   0  0  0  0  0  0  0  0  0  0  0  0
    9.3233    6.1182    0.0000 C   0  0  0  0  0  0  0  0  0  0  0  0
   10.6223    6.8681    0.0000 I   0  0  0  0  0  0  0  0  0  0  0  0
    8.0243    6.8681    0.0000 C   0  0  0  0  0  0  0  0  0  0  0  0
    8.0243    8.3681    0.0000 C   0  0  0  0  0  0  0  0  0  0  0  0
    6.7252    9.1182    0.0000 O   0  0  0  0  0  0  0  0  0  0  0  0
    9.3233    9.1182    0.0000 O   0  0  0  0  0  0  0  0  0  0  0  0
    6.7252    6.1182    0.0000 C   0  0  0  0  0  0  0  0  0  0  0  0
    5.4262    6.8681    0.0000 I   0  0  0  0  0  0  0  0  0  0  0  0
   -1.0690    6.1182    0.0000 C   0  0  0  0  0  0  0  0  0  0  0  0
    0.2300    6.8681    0.0000 I   0  0  0  0  0  0  0  0  0  0  0  0
   -2.3681    6.8681    0.0000 C   0  0  0  0  0  0  0  0  0  0  0  0
   -2.3681    8.3681    0.0000 N   0  0  0  0  0  0  0  0  0  0  0  0
   -3.6671    9.1182    0.0000 C   0  0  0  0  0  0  0  0  0  0  0  0
   -4.9662    8.3681    0.0000 O   0  0  0  0  0  0  0  0  0  0  0  0
   -3.6671   10.6181    0.0000 C   0  0  0  0  0  0  0  0  0  0  0  0
   -1.0690    9.1182    0.0000 C   0  0  0  0  0  0  0  0  0  0  0  0
   -3.6671    6.1182    0.0000 C   0  0  0  0  0  0  0  0  0  0  0  0
   -4.9662    6.8681    0.0000 I   0  0  0  0  0  0  0  0  0  0  0  0
   -3.6671    4.6181    0.0000 C   0  0  0  0  0  0  0  0  0  0  0  0
   -4.9662    3.8681    0.0000 C   0  0  0  0  0  0  0  0  0  0  0  0
   -6.2652    4.6181    0.0000 O   0  0  0  0  0  0  0  0  0  0  0  0
   -4.9662    2.3681    0.0000 N   0  0  0  0  0  0  0  0  0  0  0  0
   -6.2652    1.6181    0.0000 C   0  0  0  0  0  0  0  0  0  0  0  0
  1  2  1  0  0  0  0
  3  2  2  0  0  0  0
  2 39  1  0  0  0  0
  3  4  1  0  0  0  0
 29  3  1  0  0  0  0
  4  5  2  0  0  0  0
  4  6  1  0  0  0  0
  6  7  1  0  0  0  0
  7  8  1  0  0  0  0
  8  9  2  0  0  0  0
  8 10  1  0  0  0  0
 10 11  1  0  0  0  0
 12 11  2  0  0  0  0
 11 27  1  0  0  0  0
 12 13  1  0  0  0  0
 14 12  1  0  0  0  0
 14 15  1  0  0  0  0
 21 14  2  0  0  0  0
 15 16  2  0  0  0  0
 15 17  1  0  0  0  0
 17 18  1  0  0  0  0
 18 19  1  0  0  0  0
 19 20  1  0  0  0  0
 21 22  1  0  0  0  0
 23 21  1  0  0  0  0
 23 24  1  0  0  0  0
 27 23  2  0  0  0  0
 24 25  1  0  0  0  0
 24 26  2  0  0  0  0
 27 28  1  0  0  0  0
 29 30  1  0  0  0  0
 31 29  2  0  0  0  0
 31 32  1  0  0  0  0
 37 31  1  0  0  0  0
 32 33  1  0  0  0  0
 32 36  1  0  0  0  0
 33 34  2  0  0  0  0
 33 35  1  0  0  0  0
 37 38  1  0  0  0  0
 39 37  2  0  0  0  0
 39 40  1  0  0  0  0
 40 41  2  0  0  0  0
 40 42  1  0  0  0  0
 42 43  1  0  0  0  0
M  END
> <Inchi_key>
TYYBFXNZMFNZJT-UHFFFAOYSA-N

> <Source>
Kotsampasakou

> <ID>
EK0277

> <H_MFHB>


> <CAS>


> <Cholestasis>
0

> <Name>
ioxaglate

> <Class>
0

$$$$