
  -INDIGO-08031710012D

 17 18  0  0  0  0  0  0  0  0999 V2000
    0.9260   -0.0000    0.0000 C   0  0  0  0  0  0  0  0  0  0  0  0
   -0.5742   -0.0000    0.0000 C   0  0  0  0  0  0  0  0  0  0  0  0
   -1.3241    1.2990    0.0000 C   0  0  0  0  0  0  0  0  0  0  0  0
   -1.3241   -1.2990    0.0000 C   0  0  0  0  0  0  0  0  0  0  0  0
   -2.8241   -1.2990    0.0000 C   0  0  0  0  0  0  0  0  0  0  0  0
   -3.5741   -2.5981    0.0000 C   0  0  0  0  0  0  0  0  0  0  0  0
   -2.8241   -3.8971    0.0000 C   0  0  0  0  0  0  0  0  0  0  0  0
   -3.5741   -5.1962    0.0000 C   0  0  0  0  0  0  0  0  0  0  0  0
   -1.3241   -3.8971    0.0000 C   0  0  0  0  0  0  0  0  0  0  0  0
   -0.5742   -2.5981    0.0000 C   0  0  0  0  0  0  0  0  0  0  0  0
    0.9260   -2.5981    0.0000 O   0  0  0  0  0  0  0  0  0  0  0  0
    1.6759   -3.8971    0.0000 C   0  0  0  0  0  0  0  0  0  0  0  0
    3.1759   -3.8971    0.0000 C   0  0  0  0  0  0  0  0  0  0  0  0
    4.0576   -2.6836    0.0000 N   0  0  0  0  0  0  0  0  0  0  0  0
    5.4842   -3.1471    0.0000 C   0  0  0  0  0  0  0  0  0  0  0  0
    5.4842   -4.6471    0.0000 C   0  0  0  0  0  0  0  0  0  0  0  0
    4.0576   -5.1106    0.0000 N   0  0  0  0  0  0  0  0  0  0  0  0
  1  2  1  0  0  0  0
  2  3  1  0  0  0  0
  2  4  1  0  0  0  0
  5  4  2  0  0  0  0
  4 10  1  0  0  0  0
  6  5  1  0  0  0  0
  7  6  2  0  0  0  0
  7  8  1  0  0  0  0
  9  7  1  0  0  0  0
 10  9  2  0  0  0  0
 10 11  1  0  0  0  0
 11 12  1  0  0  0  0
 12 13  1  0  0  0  0
 14 13  2  0  0  0  0
 13 17  1  0  0  0  0
 15 14  1  0  0  0  0
 16 15  1  0  0  0  0
 17 16  1  0  0  0  0
M  END
> <Inchi_key>
QRORCRWSRPKEHR-UHFFFAOYSA-N

> <Source>
Mulliner

> <ID>
HT2147

> <H_MFHB>
0

> <CAS>


> <Cholestasis>


> <Name>
tymazoline

> <Class>
0

$$$$