
  -INDIGO-08031710012D

 48 53  0  0  0  0  0  0  0  0999 V2000
   27.2258   -0.1674    0.0000 C   0  0  0  0  0  0  0  0  0  0  0  0
   25.7259   -0.1490    0.0000 C   0  0  0  0  0  0  0  0  0  0  0  0
   24.9600   -1.4388    0.0000 O   0  0  0  0  0  0  0  0  0  0  0  0
   23.4600   -1.4202    0.0000 C   0  0  0  0  0  0  0  0  0  0  0  0
   22.7260   -0.1120    0.0000 O   0  0  0  0  0  0  0  0  0  0  0  0
   22.6942   -2.7100    0.0000 O   0  0  0  0  0  0  0  0  0  0  0  0
   21.1942   -2.6915    0.0000 C   0  0  0  0  0  0  0  0  0  0  0  0
   20.4283   -3.9812    0.0000 C   0  0  0  0  0  0  0  0  0  0  0  0
   21.1624   -5.2894    0.0000 O   0  0  0  0  0  0  0  0  0  0  0  0
   20.3965   -6.5791    0.0000 C   0  0  0  0  0  0  0  0  0  0  0  0
   18.9284   -3.9629    0.0000 C   0  0  0  0  0  0  0  0  0  0  0  0
   18.1943   -2.6546    0.0000 C   0  0  0  0  0  0  0  0  0  0  0  0
   18.9606   -1.3649    0.0000 C   0  0  0  0  0  0  0  0  0  0  0  0
   20.4601   -1.3833    0.0000 C   0  0  0  0  0  0  0  0  0  0  0  0
   21.2264   -0.0936    0.0000 O   0  0  0  0  0  0  0  0  0  0  0  0
   20.4924    1.2145    0.0000 C   0  0  0  0  0  0  0  0  0  0  0  0
   16.6948   -2.6362    0.0000 C   0  0  0  0  0  0  0  0  0  0  0  0
   15.9285   -3.9260    0.0000 O   0  0  0  0  0  0  0  0  0  0  0  0
   15.9607   -1.3280    0.0000 O   0  0  0  0  0  0  0  0  0  0  0  0
   14.4608   -1.3096    0.0000 C   0  0  0  0  0  0  0  0  0  0  0  0
   13.6949   -2.5993    0.0000 C   0  0  0  0  0  0  0  0  0  0  0  0
   12.1950   -2.5808    0.0000 C   0  0  0  0  0  0  0  0  0  0  0  0
   11.4291   -3.8705    0.0000 C   0  0  0  0  0  0  0  0  0  0  0  0
    9.9292   -3.8522    0.0000 N   0  0  0  0  0  0  0  0  0  0  0  0
    9.1633   -5.1418    0.0000 C   0  0  0  0  0  0  0  0  0  0  0  0
    7.6633   -5.1234    0.0000 C   0  0  0  0  0  0  0  0  0  0  0  0
    6.9293   -3.8153    0.0000 C   0  0  0  0  0  0  0  0  0  0  0  0
    7.6951   -2.5254    0.0000 C   0  0  0  0  0  0  0  0  0  0  0  0
    6.7054   -1.3985    0.0000 N   0  0  0  0  0  0  0  0  0  0  0  0
    5.3277   -1.9918    0.0000 C   0  0  0  0  0  0  0  0  0  0  0  0
    3.9649   -1.3648    0.0000 C   0  0  0  0  0  0  0  0  0  0  0  0
    2.7409   -2.2315    0.0000 C   0  0  0  0  0  0  0  0  0  0  0  0
    1.3781   -1.6045    0.0000 O   0  0  0  0  0  0  0  0  0  0  0  0
    0.1537   -2.4714    0.0000 C   0  0  0  0  0  0  0  0  0  0  0  0
    2.8793   -3.7251    0.0000 C   0  0  0  0  0  0  0  0  0  0  0  0
    4.2421   -4.3520    0.0000 C   0  0  0  0  0  0  0  0  0  0  0  0
    5.4661   -3.4852    0.0000 C   0  0  0  0  0  0  0  0  0  0  0  0
    9.1951   -2.5439    0.0000 C   0  0  0  0  0  0  0  0  0  0  0  0
    9.9610   -1.2542    0.0000 C   0  0  0  0  0  0  0  0  0  0  0  0
   11.4609   -1.2727    0.0000 C   0  0  0  0  0  0  0  0  0  0  0  0
   12.2268    0.0171    0.0000 C   0  0  0  0  0  0  0  0  0  0  0  0
   13.7267   -0.0013    0.0000 C   0  0  0  0  0  0  0  0  0  0  0  0
   14.4926    1.2883    0.0000 O   0  0  0  0  0  0  0  0  0  0  0  0
   15.9925    1.2699    0.0000 C   0  0  0  0  0  0  0  0  0  0  0  0
   11.4931    1.3252    0.0000 C   0  0  0  0  0  0  0  0  0  0  0  0
   12.2590    2.6149    0.0000 O   0  0  0  0  0  0  0  0  0  0  0  0
    9.9932    1.3437    0.0000 O   0  0  0  0  0  0  0  0  0  0  0  0
    9.2591    2.6518    0.0000 C   0  0  0  0  0  0  0  0  0  0  0  0
  1  2  1  0  0  0  0
  2  3  1  0  0  0  0
  3  4  1  0  0  0  0
  4  5  2  0  0  0  0
  4  6  1  0  0  0  0
  6  7  1  0  0  0  0
  8  7  2  0  0  0  0
  7 14  1  0  0  0  0
  8  9  1  0  0  0  0
 11  8  1  0  0  0  0
  9 10  1  0  0  0  0
 12 11  2  0  0  0  0
 13 12  1  0  0  0  0
 12 17  1  0  0  0  0
 14 13  2  0  0  0  0
 14 15  1  0  0  0  0
 15 16  1  0  0  0  0
 17 18  2  0  0  0  0
 17 19  1  0  0  0  0
 19 20  1  0  0  0  0
 21 20  1  0  0  0  0
 20 42  1  0  0  0  0
 22 21  1  0  0  0  0
 23 22  1  0  0  0  0
 22 40  1  0  0  0  0
 24 23  1  0  0  0  0
 25 24  1  0  0  0  0
 24 38  1  0  0  0  0
 26 25  1  0  0  0  0
 27 26  1  0  0  0  0
 27 28  2  0  0  0  0
 37 27  1  0  0  0  0
 28 29  1  0  0  0  0
 38 28  1  0  0  0  0
 29 30  1  0  0  0  0
 31 30  1  0  0  0  0
 30 37  2  0  0  0  0
 32 31  2  0  0  0  0
 32 33  1  0  0  0  0
 35 32  1  0  0  0  0
 33 34  1  0  0  0  0
 36 35  2  0  0  0  0
 37 36  1  0  0  0  0
 39 38  1  0  0  0  0
 40 39  1  0  0  0  0
 41 40  1  0  0  0  0
 42 41  1  0  0  0  0
 41 45  1  0  0  0  0
 42 43  1  0  0  0  0
 43 44  1  0  0  0  0
 45 46  2  0  0  0  0
 45 47  1  0  0  0  0
 47 48  1  0  0  0  0
M  END
> <Inchi_key>
ZCDNRPPFBQDQHR-UHFFFAOYSA-N

> <Source>
Mulliner

> <ID>
HT3982

> <H_MFHB>
0

> <CAS>


> <Cholestasis>


> <Name>


> <Class>
0

$$$$