

  -INDIGO-08031710012D

 20 19  0  0  0  0  0  0  0  0999 V2000
   22.2315    2.3569    0.0000 C   0  0  0  0  0  0  0  0  0  0  0  0
   20.9325    3.1069    0.0000 C   0  0  0  0  0  0  0  0  0  0  0  0
   19.6334    2.3569    0.0000 C   0  0  0  0  0  0  0  0  0  0  0  0
   18.3344    3.1069    0.0000 C   0  0  0  0  0  0  0  0  0  0  0  0
   17.0354    2.3569    0.0000 C   0  0  0  0  0  0  0  0  0  0  0  0
   15.7363    3.1069    0.0000 C   0  0  0  0  0  0  0  0  0  0  0  0
   14.4373    2.3569    0.0000 C   0  0  0  0  0  0  0  0  0  0  0  0
   13.1383    3.1069    0.0000 C   0  0  0  0  0  0  0  0  0  0  0  0
   13.1383    4.6069    0.0000 C   0  0  0  0  0  0  0  0  0  0  0  0
   11.8392    5.3569    0.0000 C   0  0  0  0  0  0  0  0  0  0  0  0
   10.5402    4.6069    0.0000 C   0  0  0  0  0  0  0  0  0  0  0  0
    9.2411    5.3569    0.0000 C   0  0  0  0  0  0  0  0  0  0  0  0
    7.9421    4.6069    0.0000 C   0  0  0  0  0  0  0  0  0  0  0  0
    6.6431    5.3569    0.0000 C   0  0  0  0  0  0  0  0  0  0  0  0
    5.3440    4.6069    0.0000 C   0  0  0  0  0  0  0  0  0  0  0  0
    4.0450    5.3569    0.0000 C   0  0  0  0  0  0  0  0  0  0  0  0
    2.7460    4.6069    0.0000 C   0  0  0  0  0  0  0  0  0  0  0  0
    1.4469    5.3569    0.0000 C   0  0  0  0  0  0  0  0  0  0  0  0
    0.1479    4.6069    0.0000 O   0  0  0  0  0  0  0  0  0  0  0  0
    1.4469    6.8569    0.0000 O   0  0  0  0  0  0  0  0  0  0  0  0
  1  2  1  0  0  0  0
  2  3  1  0  0  0  0
  3  4  1  0  0  0  0
  4  5  1  0  0  0  0
  5  6  1  0  0  0  0
  6  7  1  0  0  0  0
  7  8  1  0  0  0  0
  8  9  1  0  0  0  0
  9 10  2  0  0  0  0
 10 11  1  0  0  0  0
 11 12  1  0  0  0  0
 12 13  1  0  0  0  0
 13 14  1  0  0  0  0
 14 15  1  0  0  0  0
 15 16  1  0  0  0  0
 16 17  1  0  0  0  0
 17 18  1  0  0  0  0
 18 19  2  0  0  0  0
 18 20  1  0  0  0  0
M  END
> <Inchi_key>
ZQPPMHVWECSIRJ-KTKRTIGZSA-N

> <Source>
Mulliner

> <ID>
HT0805

> <H_MFHB>
0

> <CAS>


> <Cholestasis>


> <Name>
ethanolamine oleate

> <Class>
0


$$$$