

  -INDIGO-08031710012D

  8  8  0  0  0  0  0  0  0  0999 V2000
    0.4889   -1.8248    0.0000 N   0  0  0  0  0  0  0  0  0  0  0  0
    1.7880   -1.0748    0.0000 C   0  0  0  0  0  0  0  0  0  0  0  0
    3.0870   -1.8248    0.0000 C   0  0  0  0  0  0  0  0  0  0  0  0
    4.3861   -1.0748    0.0000 C   0  0  0  0  0  0  0  0  0  0  0  0
    4.3861    0.4252    0.0000 C   0  0  0  0  0  0  0  0  0  0  0  0
    3.0870    1.1752    0.0000 C   0  0  0  0  0  0  0  0  0  0  0  0
    1.7880    0.4252    0.0000 C   0  0  0  0  0  0  0  0  0  0  0  0
    0.4889    1.1752    0.0000 N   0  0  0  0  0  0  0  0  0  0  0  0
  1  2  1  0  0  0  0
  3  2  1  0  0  0  0
  2  7  1  0  0  0  0
  4  3  1  0  0  0  0
  5  4  1  0  0  0  0
  6  5  1  0  0  0  0
  7  6  1  0  0  0  0
  7  8  1  0  0  0  0
M  END
> <Inchi_key>
SSJXIUAHEKJCMH-UHFFFAOYSA-N

> <Source>
Mulliner

> <ID>
HT2468

> <H_MFHB>
0

> <CAS>
61825-94-3

> <Cholestasis>


> <Name>


> <Class>
0


$$$$