

  -INDIGO-08031710012D

 14 14  0  0  0  0  0  0  0  0999 V2000
   10.7245    2.8736    0.0000 C   0  0  0  0  0  0  0  0  0  0  0  0
    9.4254    2.1236    0.0000 C   0  0  0  0  0  0  0  0  0  0  0  0
    9.4254    0.6236    0.0000 C   0  0  0  0  0  0  0  0  0  0  0  0
    8.1264    2.8736    0.0000 C   0  0  0  0  0  0  0  0  0  0  0  0
    6.8273    2.1236    0.0000 O   0  0  0  0  0  0  0  0  0  0  0  0
    5.5284    2.8736    0.0000 C   0  0  0  0  0  0  0  0  0  0  0  0
    5.5284    4.3736    0.0000 O   0  0  0  0  0  0  0  0  0  0  0  0
    4.2294    2.1236    0.0000 C   0  0  0  0  0  0  0  0  0  0  0  0
    4.2294    0.6236    0.0000 C   0  0  0  0  0  0  0  0  0  0  0  0
    2.9303   -0.1264    0.0000 C   0  0  0  0  0  0  0  0  0  0  0  0
    1.6313    0.6236    0.0000 C   0  0  0  0  0  0  0  0  0  0  0  0
    0.3322   -0.1264    0.0000 N   0  0  0  0  0  0  0  0  0  0  0  0
    1.6313    2.1236    0.0000 C   0  0  0  0  0  0  0  0  0  0  0  0
    2.9303    2.8736    0.0000 C   0  0  0  0  0  0  0  0  0  0  0  0
  1  2  1  0  0  0  0
  2  3  1  0  0  0  0
  2  4  1  0  0  0  0
  4  5  1  0  0  0  0
  5  6  1  0  0  0  0
  6  7  2  0  0  0  0
  6  8  1  0  0  0  0
  9  8  2  0  0  0  0
  8 14  1  0  0  0  0
 10  9  1  0  0  0  0
 11 10  2  0  0  0  0
 11 12  1  0  0  0  0
 13 11  1  0  0  0  0
 14 13  2  0  0  0  0
M  END
> <Inchi_key>
PUYOAVGNCWPANW-UHFFFAOYSA-N

> <Source>
Mulliner

> <ID>
HT2826

> <H_MFHB>
0

> <CAS>


> <Cholestasis>


> <Name>


> <Class>
0


$$$$