
  -INDIGO-08031710012D

 16 16  0  0  0  0  0  0  0  0999 V2000
   -0.0702    2.0432    0.0000 C   0  0  0  0  0  0  0  0  0  0  0  0
    1.2288    1.2932    0.0000 C   0  0  0  0  0  0  0  0  0  0  0  0
    2.5279    2.0432    0.0000 C   0  0  0  0  0  0  0  0  0  0  0  0
    2.5279    3.5432    0.0000 C   0  0  0  0  0  0  0  0  0  0  0  0
    3.8269    1.2932    0.0000 C   0  0  0  0  0  0  0  0  0  0  0  0
    2.5279    0.5432    0.0000 C   0  0  0  0  0  0  0  0  0  0  0  0
    2.5279   -0.9568    0.0000 C   0  0  0  0  0  0  0  0  0  0  0  0
    1.2288   -1.7068    0.0000 C   0  0  0  0  0  0  0  0  0  0  0  0
    4.5769    2.5922    0.0000 C   0  0  0  0  0  0  0  0  0  0  0  0
    3.8269    3.8913    0.0000 O   0  0  0  0  0  0  0  0  0  0  0  0
    6.0769    2.5922    0.0000 N   0  0  0  0  0  0  0  0  0  0  0  0
    6.8269    1.2932    0.0000 C   0  0  0  0  0  0  0  0  0  0  0  0
    8.3269    1.2932    0.0000 O   0  0  0  0  0  0  0  0  0  0  0  0
    6.0769   -0.0058    0.0000 N   0  0  0  0  0  0  0  0  0  0  0  0
    4.5769   -0.0058    0.0000 C   0  0  0  0  0  0  0  0  0  0  0  0
    3.8269   -1.3049    0.0000 O   0  0  0  0  0  0  0  0  0  0  0  0
  1  2  1  0  0  0  0
  2  3  1  0  0  0  0
  3  4  1  0  0  0  0
  3  5  1  0  0  0  0
  5  6  1  0  0  0  0
  9  5  1  0  0  0  0
  5 15  1  0  0  0  0
  6  7  1  0  0  0  0
  7  8  2  0  0  0  0
  9 10  2  0  0  0  0
 11  9  1  0  0  0  0
 12 11  1  0  0  0  0
 12 13  2  0  0  0  0
 14 12  1  0  0  0  0
 15 14  1  0  0  0  0
 15 16  2  0  0  0  0
M  END
> <Inchi_key>
BJVVMKUXKQHWJK-UHFFFAOYSA-N

> <Source>
Mulliner

> <ID>
HT2974

> <H_MFHB>
0

> <CAS>


> <Cholestasis>


> <Name>


> <Class>
0

$$$$