

  -INDIGO-08031710012D

 35 41  0  0  0  0  0  0  0  0999 V2000
   -3.3837    7.9553    0.0000 O   0  0  0  0  0  0  0  0  0  0  0  0
   -3.7465    6.4998    0.0000 C   0  0  0  0  0  0  0  0  0  0  0  0
   -5.2409    5.7531    0.0000 C   0  0  0  0  0  0  0  0  0  0  0  0
   -6.7745    5.7222    0.0000 C   0  0  0  0  0  0  0  0  0  0  0  0
   -7.2937    4.5251    0.0000 C   0  0  0  0  0  0  0  0  0  0  0  0
   -7.2388    3.2714    0.0000 C   0  0  0  0  0  0  0  0  0  0  0  0
   -6.4820    4.4990    0.0000 C   0  0  0  0  0  0  0  0  0  0  0  0
   -7.7077    6.7424    0.0000 C   0  0  0  0  0  0  0  0  0  0  0  0
   -5.1151    4.6037    0.0000 C   0  0  0  0  0  0  0  0  0  0  0  0
   -3.7688    4.0721    0.0000 C   0  0  0  0  0  0  0  0  0  0  0  0
   -3.3565    2.6299    0.0000 O   0  0  0  0  0  0  0  0  0  0  0  0
   -2.8765    5.2778    0.0000 N   0  0  0  0  0  0  0  0  0  0  0  0
   -1.3766    5.2636    0.0000 C   0  0  0  0  0  0  0  0  0  0  0  0
   -0.6141    6.5553    0.0000 C   0  0  0  0  0  0  0  0  0  0  0  0
   -1.3517    7.8614    0.0000 C   0  0  0  0  0  0  0  0  0  0  0  0
   -0.5892    9.1533    0.0000 C   0  0  0  0  0  0  0  0  0  0  0  0
    0.9106    9.1389    0.0000 C   0  0  0  0  0  0  0  0  0  0  0  0
    1.6483    7.8327    0.0000 C   0  0  0  0  0  0  0  0  0  0  0  0
    0.8858    6.5410    0.0000 C   0  0  0  0  0  0  0  0  0  0  0  0
    1.6234    5.2349    0.0000 C   0  0  0  0  0  0  0  0  0  0  0  0
    3.1232    5.2204    0.0000 N   0  0  0  0  0  0  0  0  0  0  0  0
    3.8858    6.5122    0.0000 C   0  0  0  0  0  0  0  0  0  0  0  0
    5.3856    6.4979    0.0000 C   0  0  0  0  0  0  0  0  0  0  0  0
    6.1230    5.1918    0.0000 N   0  0  0  0  0  0  0  0  0  0  0  0
    5.3607    3.8999    0.0000 C   0  0  0  0  0  0  0  0  0  0  0  0
    3.8609    3.9143    0.0000 C   0  0  0  0  0  0  0  0  0  0  0  0
    7.6231    5.1773    0.0000 C   0  0  0  0  0  0  0  0  0  0  0  0
    8.5163    6.3824    0.0000 N   0  0  0  0  0  0  0  0  0  0  0  0
    9.9384    5.9052    0.0000 S   0  0  0  0  0  0  0  0  0  0  0  0
    9.9241    4.4053    0.0000 C   0  0  0  0  0  0  0  0  0  0  0  0
   11.0291    3.3910    0.0000 C   0  0  0  0  0  0  0  0  0  0  0  0
   10.7032    1.9268    0.0000 C   0  0  0  0  0  0  0  0  0  0  0  0
    9.2722    1.4770    0.0000 C   0  0  0  0  0  0  0  0  0  0  0  0
    8.1672    2.4913    0.0000 C   0  0  0  0  0  0  0  0  0  0  0  0
    8.4931    3.9554    0.0000 C   0  0  0  0  0  0  0  0  0  0  0  0
  1  2  2  0  0  0  0
  3  2  1  0  0  0  0
  2 12  1  0  0  0  0
  4  3  1  0  0  0  0
  3  9  1  0  0  0  0
  4  5  1  0  0  0  0
  8  4  1  0  0  0  0
  5  6  1  0  0  0  0
  6  7  1  0  0  0  0
  7  8  1  0  0  0  0
  9  7  1  0  0  0  0
 10  9  1  0  0  0  0
 10 11  2  0  0  0  0
 12 10  1  0  0  0  0
 12 13  1  0  0  0  0
 13 14  1  0  0  0  0
 15 14  1  0  0  0  0
 14 19  1  0  0  0  0
 16 15  1  0  0  0  0
 17 16  1  0  0  0  0
 18 17  1  0  0  0  0
 19 18  1  0  0  0  0
 19 20  1  0  0  0  0
 20 21  1  0  0  0  0
 22 21  1  0  0  0  0
 21 26  1  0  0  0  0
 23 22  1  0  0  0  0
 24 23  1  0  0  0  0
 25 24  1  0  0  0  0
 24 27  1  0  0  0  0
 26 25  1  0  0  0  0
 28 27  2  0  0  0  0
 27 35  1  0  0  0  0
 29 28  1  0  0  0  0
 30 29  1  0  0  0  0
 31 30  1  0  0  0  0
 30 35  2  0  0  0  0
 32 31  2  0  0  0  0
 33 32  1  0  0  0  0
 34 33  2  0  0  0  0
 35 34  1  0  0  0  0
M  END
> <Inchi_key>
PQXKDMSYBGKCJA-UHFFFAOYSA-N

> <Source>
Mulliner

> <ID>
HT1258

> <H_MFHB>
0

> <CAS>


> <Cholestasis>


> <Name>
lurasidone hydrochloride

> <Class>
0


$$$$