

  -INDIGO-08031710012D

 10 11  0  0  0  0  0  0  0  0999 V2000
   -5.2231   -1.3995    0.0000 C   0  0  0  0  0  0  0  0  0  0  0  0
   -5.2231    0.1005    0.0000 C   0  0  0  0  0  0  0  0  0  0  0  0
   -3.9240    0.8505    0.0000 C   0  0  0  0  0  0  0  0  0  0  0  0
   -2.6250    0.1005    0.0000 C   0  0  0  0  0  0  0  0  0  0  0  0
   -1.3260    0.8505    0.0000 C   0  0  0  0  0  0  0  0  0  0  0  0
   -0.0269    0.1005    0.0000 C   0  0  0  0  0  0  0  0  0  0  0  0
   -0.0269   -1.3995    0.0000 C   0  0  0  0  0  0  0  0  0  0  0  0
   -1.3260   -2.1495    0.0000 C   0  0  0  0  0  0  0  0  0  0  0  0
   -2.6250   -1.3995    0.0000 C   0  0  0  0  0  0  0  0  0  0  0  0
   -3.9240   -2.1495    0.0000 C   0  0  0  0  0  0  0  0  0  0  0  0
  2  1  2  0  0  0  0
  1 10  1  0  0  0  0
  3  2  1  0  0  0  0
  4  3  2  0  0  0  0
  5  4  1  0  0  0  0
  4  9  1  0  0  0  0
  6  5  2  0  0  0  0
  7  6  1  0  0  0  0
  8  7  2  0  0  0  0
  9  8  1  0  0  0  0
 10  9  2  0  0  0  0
M  END
> <Inchi_key>
UFWIBTONFRDIAS-UHFFFAOYSA-N

> <Source>
Mulliner

> <ID>
HT2533

> <H_MFHB>
0

> <CAS>
91-20-3

> <Cholestasis>


> <Name>


> <Class>
0


$$$$