
  -INDIGO-08031710012D

 14 15  0  0  0  0  0  0  0  0999 V2000
   10.1919   -2.9830    0.0000 C   0  0  0  0  0  0  0  0  0  0  0  0
    8.8215   -3.5931    0.0000 C   0  0  0  0  0  0  0  0  0  0  0  0
    7.6080   -2.7114    0.0000 C   0  0  0  0  0  0  0  0  0  0  0  0
    7.7648   -1.2196    0.0000 N   0  0  0  0  0  0  0  0  0  0  0  0
    6.2377   -3.3215    0.0000 C   0  0  0  0  0  0  0  0  0  0  0  0
    5.0242   -2.4398    0.0000 C   0  0  0  0  0  0  0  0  0  0  0  0
    5.0242   -0.9398    0.0000 C   0  0  0  0  0  0  0  0  0  0  0  0
    3.5976   -0.4763    0.0000 N   0  0  0  0  0  0  0  0  0  0  0  0
    2.7159   -1.6898    0.0000 C   0  0  0  0  0  0  0  0  0  0  0  0
    1.2240   -1.8466    0.0000 C   0  0  0  0  0  0  0  0  0  0  0  0
    0.6140   -3.2169    0.0000 C   0  0  0  0  0  0  0  0  0  0  0  0
    1.4957   -4.4304    0.0000 C   0  0  0  0  0  0  0  0  0  0  0  0
    2.9875   -4.2736    0.0000 C   0  0  0  0  0  0  0  0  0  0  0  0
    3.5976   -2.9033    0.0000 C   0  0  0  0  0  0  0  0  0  0  0  0
  1  2  1  0  0  0  0
  2  3  1  0  0  0  0
  3  4  1  0  0  0  0
  3  5  1  0  0  0  0
  5  6  1  0  0  0  0
  7  6  2  0  0  0  0
  6 14  1  0  0  0  0
  8  7  1  0  0  0  0
  9  8  1  0  0  0  0
 10  9  1  0  0  0  0
  9 14  2  0  0  0  0
 11 10  2  0  0  0  0
 12 11  1  0  0  0  0
 13 12  2  0  0  0  0
 14 13  1  0  0  0  0
M  END
> <Inchi_key>
ZXUMUPVQYAFTLF-UHFFFAOYSA-N

> <Source>
Mulliner

> <ID>
HT2811

> <H_MFHB>
0

> <CAS>


> <Cholestasis>


> <Name>


> <Class>
0

$$$$