

  -INDIGO-08031710012D

 14 13  0  0  0  0  0  0  0  0999 V2000
   15.9437   -3.5221    0.0000 N   0  0  0  0  0  0  0  0  0  0  0  0
   14.6447   -4.2721    0.0000 C   0  0  0  0  0  0  0  0  0  0  0  0
   13.3457   -3.5221    0.0000 C   0  0  0  0  0  0  0  0  0  0  0  0
   12.0467   -4.2721    0.0000 C   0  0  0  0  0  0  0  0  0  0  0  0
   10.7475   -3.5221    0.0000 N   0  0  0  0  0  0  0  0  0  0  0  0
    9.4485   -4.2721    0.0000 C   0  0  0  0  0  0  0  0  0  0  0  0
    8.1495   -3.5221    0.0000 C   0  0  0  0  0  0  0  0  0  0  0  0
    6.8505   -4.2721    0.0000 C   0  0  0  0  0  0  0  0  0  0  0  0
    5.5515   -3.5221    0.0000 C   0  0  0  0  0  0  0  0  0  0  0  0
    4.2525   -4.2721    0.0000 N   0  0  0  0  0  0  0  0  0  0  0  0
    2.9533   -3.5221    0.0000 C   0  0  0  0  0  0  0  0  0  0  0  0
    1.6543   -4.2721    0.0000 C   0  0  0  0  0  0  0  0  0  0  0  0
    0.3553   -3.5221    0.0000 C   0  0  0  0  0  0  0  0  0  0  0  0
   -0.9437   -4.2721    0.0000 N   0  0  0  0  0  0  0  0  0  0  0  0
  1  2  1  0  0  0  0
  2  3  1  0  0  0  0
  3  4  1  0  0  0  0
  4  5  1  0  0  0  0
  5  6  1  0  0  0  0
  6  7  1  0  0  0  0
  7  8  1  0  0  0  0
  8  9  1  0  0  0  0
  9 10  1  0  0  0  0
 10 11  1  0  0  0  0
 11 12  1  0  0  0  0
 12 13  1  0  0  0  0
 13 14  1  0  0  0  0
M  END
> <Inchi_key>
PFNFFQXMRSDOHW-UHFFFAOYSA-N

> <Source>
Mulliner

> <ID>
HT1910

> <H_MFHB>
0

> <CAS>


> <Cholestasis>


> <Name>
spermine

> <Class>
0


$$$$