
  -INDIGO-08031710012D

 17 18  0  0  0  0  0  0  0  0999 V2000
   12.3052    0.3645    0.0000 C   0  0  0  0  0  0  0  0  0  0  0  0
   10.8127    0.2161    0.0000 C   0  0  0  0  0  0  0  0  0  0  0  0
   10.0552   -1.0786    0.0000 N   0  0  0  0  0  0  0  0  0  0  0  0
    8.5898   -0.7584    0.0000 N   0  0  0  0  0  0  0  0  0  0  0  0
    8.4415    0.7342    0.0000 C   0  0  0  0  0  0  0  0  0  0  0  0
    7.1468    1.4916    0.0000 N   0  0  0  0  0  0  0  0  0  0  0  0
    5.8434    0.7490    0.0000 S   0  0  0  0  0  0  0  0  0  0  0  0
    5.1007    2.0523    0.0000 O   0  0  0  0  0  0  0  0  0  0  0  0
    6.5860   -0.5543    0.0000 O   0  0  0  0  0  0  0  0  0  0  0  0
    4.5401    0.0064    0.0000 C   0  0  0  0  0  0  0  0  0  0  0  0
    4.5316   -1.4936    0.0000 C   0  0  0  0  0  0  0  0  0  0  0  0
    3.2282   -2.2362    0.0000 C   0  0  0  0  0  0  0  0  0  0  0  0
    1.9336   -1.4788    0.0000 C   0  0  0  0  0  0  0  0  0  0  0  0
    0.6303   -2.2214    0.0000 N   0  0  0  0  0  0  0  0  0  0  0  0
    1.9422    0.0212    0.0000 C   0  0  0  0  0  0  0  0  0  0  0  0
    3.2453    0.7638    0.0000 C   0  0  0  0  0  0  0  0  0  0  0  0
    9.8152    1.3365    0.0000 S   0  0  0  0  0  0  0  0  0  0  0  0
  1  2  1  0  0  0  0
  3  2  2  0  0  0  0
  2 17  1  0  0  0  0
  4  3  1  0  0  0  0
  5  4  2  0  0  0  0
  5  6  1  0  0  0  0
 17  5  1  0  0  0  0
  6  7  1  0  0  0  0
  7  8  2  0  0  0  0
  7  9  2  0  0  0  0
  7 10  1  0  0  0  0
 11 10  2  0  0  0  0
 10 16  1  0  0  0  0
 12 11  1  0  0  0  0
 13 12  2  0  0  0  0
 13 14  1  0  0  0  0
 15 13  1  0  0  0  0
 16 15  2  0  0  0  0
M  END
> <Inchi_key>
VACCAVUAMIDAGB-UHFFFAOYSA-N

> <Source>
Mulliner

> <ID>
HT1944

> <H_MFHB>
0

> <CAS>


> <Cholestasis>


> <Name>
sulfamethizole

> <Class>
0

$$$$