
  -INDIGO-08031710012D

 15 16  0  0  0  0  0  0  0  0999 V2000
   -0.7412   -1.9428    0.0000 C   0  0  0  0  0  0  0  0  0  0  0  0
    0.6240   -1.3214    0.0000 C   0  0  0  0  0  0  0  0  0  0  0  0
    1.8448   -2.1930    0.0000 N   0  0  0  0  0  0  0  0  0  0  0  0
    1.8572   -3.6929    0.0000 C   0  0  0  0  0  0  0  0  0  0  0  0
    0.6510   -4.5846    0.0000 O   0  0  0  0  0  0  0  0  0  0  0  0
    3.2875   -4.1446    0.0000 N   0  0  0  0  0  0  0  0  0  0  0  0
    4.1592   -2.9238    0.0000 C   0  0  0  0  0  0  0  0  0  0  0  0
    3.2675   -1.7177    0.0000 C   0  0  0  0  0  0  0  0  0  0  0  0
    3.7191   -0.2873    0.0000 O   0  0  0  0  0  0  0  0  0  0  0  0
    5.6591   -2.9114    0.0000 C   0  0  0  0  0  0  0  0  0  0  0  0
    6.3984   -1.6062    0.0000 C   0  0  0  0  0  0  0  0  0  0  0  0
    7.8983   -1.5938    0.0000 C   0  0  0  0  0  0  0  0  0  0  0  0
    8.6590   -2.8866    0.0000 C   0  0  0  0  0  0  0  0  0  0  0  0
    7.9199   -4.1918    0.0000 C   0  0  0  0  0  0  0  0  0  0  0  0
    6.4199   -4.2042    0.0000 C   0  0  0  0  0  0  0  0  0  0  0  0
  1  2  1  0  0  0  0
  2  3  1  0  0  0  0
  4  3  1  0  0  0  0
  3  8  1  0  0  0  0
  4  5  2  0  0  0  0
  6  4  1  0  0  0  0
  7  6  1  0  0  0  0
  8  7  1  0  0  0  0
  7 10  1  0  0  0  0
  8  9  2  0  0  0  0
 11 10  2  0  0  0  0
 10 15  1  0  0  0  0
 12 11  1  0  0  0  0
 13 12  2  0  0  0  0
 14 13  1  0  0  0  0
 15 14  2  0  0  0  0
M  END
> <Inchi_key>
SZQIFWWUIBRPBZ-UHFFFAOYSA-N

> <Source>
Mulliner , Kotsampasakou

> <ID>
EK0205;HT0812

> <H_MFHB>
0

> <CAS>


> <Cholestasis>
0

> <Name>
ethotoin

> <Class>
0

$$$$