

  -INDIGO-08031710012D

 27 29  0  0  0  0  0  0  0  0999 V2000
    3.7672    6.5251    0.0000 C   0  0  0  0  0  0  0  0  0  0  0  0
    4.5173    5.2261    0.0000 C   0  0  0  0  0  0  0  0  0  0  0  0
    6.0172    5.2261    0.0000 C   0  0  0  0  0  0  0  0  0  0  0  0
    3.7672    3.9271    0.0000 N   0  0  0  0  0  0  0  0  0  0  0  0
    3.0174    2.6280    0.0000 C   0  0  0  0  0  0  0  0  0  0  0  0
    2.4681    4.6770    0.0000 C   0  0  0  0  0  0  0  0  0  0  0  0
    1.1692    3.9271    0.0000 C   0  0  0  0  0  0  0  0  0  0  0  0
   -0.1298    4.6770    0.0000 O   0  0  0  0  0  0  0  0  0  0  0  0
   -1.4289    3.9271    0.0000 C   0  0  0  0  0  0  0  0  0  0  0  0
   -1.4289    2.4271    0.0000 O   0  0  0  0  0  0  0  0  0  0  0  0
   -2.7278    4.6770    0.0000 C   0  0  0  0  0  0  0  0  0  0  0  0
   -2.7278    6.1770    0.0000 C   0  0  0  0  0  0  0  0  0  0  0  0
   -1.4289    6.9271    0.0000 C   0  0  0  0  0  0  0  0  0  0  0  0
   -1.4289    8.4271    0.0000 C   0  0  0  0  0  0  0  0  0  0  0  0
   -2.7278    9.1770    0.0000 C   0  0  0  0  0  0  0  0  0  0  0  0
   -4.0269    8.4271    0.0000 C   0  0  0  0  0  0  0  0  0  0  0  0
   -4.0269    6.9271    0.0000 C   0  0  0  0  0  0  0  0  0  0  0  0
   -5.3261    6.1770    0.0000 O   0  0  0  0  0  0  0  0  0  0  0  0
   -5.3261    4.6770    0.0000 C   0  0  0  0  0  0  0  0  0  0  0  0
   -6.6250    3.9271    0.0000 C   0  0  0  0  0  0  0  0  0  0  0  0
   -6.6250    2.4271    0.0000 C   0  0  0  0  0  0  0  0  0  0  0  0
   -5.3261    1.6770    0.0000 C   0  0  0  0  0  0  0  0  0  0  0  0
   -4.0269    2.4271    0.0000 C   0  0  0  0  0  0  0  0  0  0  0  0
   -4.0269    3.9271    0.0000 C   0  0  0  0  0  0  0  0  0  0  0  0
    5.0664    3.1770    0.0000 C   0  0  0  0  0  0  0  0  0  0  0  0
    6.3653    3.9271    0.0000 C   0  0  0  0  0  0  0  0  0  0  0  0
    5.0664    1.6770    0.0000 C   0  0  0  0  0  0  0  0  0  0  0  0
  1  2  1  0  0  0  0
  2  3  1  0  0  0  0
  2  4  1  0  0  0  0
  4  5  1  0  0  0  0
  4  6  1  0  0  0  0
  4 25  1  0  0  0  0
  6  7  1  0  0  0  0
  7  8  1  0  0  0  0
  8  9  1  0  0  0  0
  9 10  2  0  0  0  0
  9 11  1  0  0  0  0
 12 11  1  0  0  0  0
 11 24  1  0  0  0  0
 13 12  1  0  0  0  0
 12 17  2  0  0  0  0
 14 13  2  0  0  0  0
 15 14  1  0  0  0  0
 16 15  2  0  0  0  0
 17 16  1  0  0  0  0
 18 17  1  0  0  0  0
 19 18  1  0  0  0  0
 20 19  1  0  0  0  0
 19 24  2  0  0  0  0
 21 20  2  0  0  0  0
 22 21  1  0  0  0  0
 23 22  2  0  0  0  0
 24 23  1  0  0  0  0
 25 26  1  0  0  0  0
 25 27  1  0  0  0  0
M  CHG  1   4   1
M  END
> <Inchi_key>
VVWYOYDLCMFIEM-UHFFFAOYSA-N

> <Source>
Mulliner

> <ID>
HT1758

> <H_MFHB>
0

> <CAS>


> <Cholestasis>


> <Name>
propantheline

> <Class>
0


$$$$