

  -INDIGO-08031710012D

 23 26  0  0  0  0  0  0  0  0999 V2000
   -0.0110    0.1206    0.0000 C   0  0  0  0  0  0  0  0  0  0  0  0
    1.4881    0.0710    0.0000 C   0  0  0  0  0  0  0  0  0  0  0  0
    0.7406   -1.2294    0.0000 C   0  0  0  0  0  0  0  0  0  0  0  0
   -0.7595   -1.2321    0.0000 C   0  0  0  0  0  0  0  0  0  0  0  0
   -1.5119    0.0655    0.0000 C   0  0  0  0  0  0  0  0  0  0  0  0
   -3.0118    0.0628    0.0000 O   0  0  0  0  0  0  0  0  0  0  0  0
   -0.7640    1.3659    0.0000 C   0  0  0  0  0  0  0  0  0  0  0  0
    0.7359    1.3687    0.0000 C   0  0  0  0  0  0  0  0  0  0  0  0
    1.4836    2.6691    0.0000 C   0  0  0  0  0  0  0  0  0  0  0  0
    2.9835    2.6718    0.0000 C   0  0  0  0  0  0  0  0  0  0  0  0
    3.7359    1.3742    0.0000 C   0  0  0  0  0  0  0  0  0  0  0  0
    2.9882    0.0738    0.0000 C   0  0  0  0  0  0  0  0  0  0  0  0
    3.7406   -1.2239    0.0000 C   0  0  0  0  0  0  0  0  0  0  0  0
    5.2405   -1.2212    0.0000 C   0  0  0  0  0  0  0  0  0  0  0  0
    5.9882    0.0792    0.0000 C   0  0  0  0  0  0  0  0  0  0  0  0
    6.9138   -1.1011    0.0000 C   0  0  0  0  0  0  0  0  0  0  0  0
    5.2358    1.3769    0.0000 C   0  0  0  0  0  0  0  0  0  0  0  0
    6.2376    2.4935    0.0000 C   0  0  0  0  0  0  0  0  0  0  0  0
    7.6089    1.8859    0.0000 C   0  0  0  0  0  0  0  0  0  0  0  0
    7.4549    0.3938    0.0000 C   0  0  0  0  0  0  0  0  0  0  0  0
    7.8835   -1.0437    0.0000 O   0  0  0  0  0  0  0  0  0  0  0  0
    8.9303    0.1231    0.0000 C   0  0  0  0  0  0  0  0  0  0  0  0
   10.4056   -0.1475    0.0000 C   0  0  0  0  0  0  0  0  0  0  0  0
  1  2  1  0  0  0  0
  3  2  1  0  0  0  0
  8  2  1  0  0  0  0
  2 12  1  0  0  0  0
  4  3  1  0  0  0  0
  5  4  1  0  0  0  0
  5  6  2  0  0  0  0
  7  5  1  0  0  0  0
  8  7  2  0  0  0  0
  9  8  1  0  0  0  0
 10  9  1  0  0  0  0
 11 10  1  0  0  0  0
 11 12  1  0  0  0  0
 17 11  1  0  0  0  0
 12 13  1  0  0  0  0
 13 14  1  0  0  0  0
 14 15  1  0  0  0  0
 15 16  1  0  0  0  0
 17 15  1  0  0  0  0
 15 20  1  0  0  0  0
 18 17  1  0  0  0  0
 19 18  1  0  0  0  0
 20 19  1  0  0  0  0
 20 21  1  0  0  0  0
 20 22  1  0  0  0  0
 22 23  3  0  0  0  0
M  END
> <Inchi_key>
CHNXZKVNWQUJIB-UHFFFAOYSA-N

> <Source>
Mulliner

> <ID>
HT3423

> <H_MFHB>
0

> <CAS>


> <Cholestasis>


> <Name>


> <Class>
0


$$$$