

  -INDIGO-08031710012D

 21 23  0  0  0  0  0  0  0  0999 V2000
    1.7734   -2.6667    0.0000 O   0  0  0  0  0  0  0  0  0  0  0  0
    1.0235   -1.3677    0.0000 C   0  0  0  0  0  0  0  0  0  0  0  0
    2.3224   -0.6177    0.0000 C   0  0  0  0  0  0  0  0  0  0  0  0
    3.6214   -1.3677    0.0000 C   0  0  0  0  0  0  0  0  0  0  0  0
    4.9205   -0.6177    0.0000 N   0  0  0  0  0  0  0  0  0  0  0  0
    4.9205    0.8823    0.0000 C   0  0  0  0  0  0  0  0  0  0  0  0
    6.2195    1.6323    0.0000 C   0  0  0  0  0  0  0  0  0  0  0  0
    7.5186    0.8823    0.0000 C   0  0  0  0  0  0  0  0  0  0  0  0
    7.5186   -0.6177    0.0000 C   0  0  0  0  0  0  0  0  0  0  0  0
    6.2195   -1.3677    0.0000 C   0  0  0  0  0  0  0  0  0  0  0  0
    0.2734   -0.0686    0.0000 C   0  0  0  0  0  0  0  0  0  0  0  0
   -1.2183    0.0882    0.0000 C   0  0  0  0  0  0  0  0  0  0  0  0
   -1.5302    1.5554    0.0000 C   0  0  0  0  0  0  0  0  0  0  0  0
   -0.2312    2.3054    0.0000 C   0  0  0  0  0  0  0  0  0  0  0  0
    0.8834    1.3017    0.0000 C   0  0  0  0  0  0  0  0  0  0  0  0
   -0.2757   -2.1177    0.0000 C   0  0  0  0  0  0  0  0  0  0  0  0
   -0.2757   -3.6177    0.0000 C   0  0  0  0  0  0  0  0  0  0  0  0
   -1.5746   -4.3677    0.0000 C   0  0  0  0  0  0  0  0  0  0  0  0
   -2.8737   -3.6177    0.0000 C   0  0  0  0  0  0  0  0  0  0  0  0
   -2.8737   -2.1177    0.0000 C   0  0  0  0  0  0  0  0  0  0  0  0
   -1.5746   -1.3677    0.0000 C   0  0  0  0  0  0  0  0  0  0  0  0
  1  2  1  0  0  0  0
  2  3  1  0  0  0  0
  2 11  1  0  0  0  0
  2 16  1  0  0  0  0
  3  4  1  0  0  0  0
  4  5  1  0  0  0  0
  6  5  1  0  0  0  0
  5 10  1  0  0  0  0
  7  6  1  0  0  0  0
  8  7  1  0  0  0  0
  9  8  1  0  0  0  0
 10  9  1  0  0  0  0
 12 11  1  0  0  0  0
 11 15  1  0  0  0  0
 13 12  1  0  0  0  0
 14 13  1  0  0  0  0
 15 14  1  0  0  0  0
 17 16  2  0  0  0  0
 16 21  1  0  0  0  0
 18 17  1  0  0  0  0
 19 18  2  0  0  0  0
 20 19  1  0  0  0  0
 21 20  2  0  0  0  0
M  END
> <Inchi_key>
SWRUZBWLEWHWRI-UHFFFAOYSA-N

> <Source>
Mulliner

> <ID>
HT0573

> <H_MFHB>
0

> <CAS>


> <Cholestasis>


> <Name>
cycrimine

> <Class>
0


$$$$