

  -INDIGO-08031710012D

 11 11  0  0  0  0  0  0  0  0999 V2000
    1.3041    3.4692    0.0000 N   0  0  0  0  0  0  0  0  0  0  0  0
    1.2870    1.9693    0.0000 C   0  0  0  0  0  0  0  0  0  0  0  0
    2.5775    1.2046    0.0000 C   0  0  0  0  0  0  0  0  0  0  0  0
    3.9547    1.7991    0.0000 C   0  0  0  0  0  0  0  0  0  0  0  0
    4.9456    0.6730    0.0000 C   0  0  0  0  0  0  0  0  0  0  0  0
    4.1809   -0.6174    0.0000 N   0  0  0  0  0  0  0  0  0  0  0  0
    2.7174   -0.2889    0.0000 O   0  0  0  0  0  0  0  0  0  0  0  0
    6.4391    0.8128    0.0000 Cl  0  0  0  0  0  0  0  0  0  0  0  0
   -0.0204    1.2341    0.0000 C   0  0  0  0  0  0  0  0  0  0  0  0
   -1.3108    1.9989    0.0000 O   0  0  0  0  0  0  0  0  0  0  0  0
   -0.0374   -0.2658    0.0000 O   0  0  0  0  0  0  0  0  0  0  0  0
  1  2  1  0  0  0  0
  2  3  1  0  0  0  0
  2  9  1  0  0  0  0
  4  3  1  0  0  0  0
  3  7  1  0  0  0  0
  5  4  1  0  0  0  0
  6  5  2  0  0  0  0
  5  8  1  0  0  0  0
  7  6  1  0  0  0  0
  9 10  2  0  0  0  0
  9 11  1  0  0  0  0
M  END
> <Inchi_key>
QAWIHIJWNYOLBE-UHFFFAOYSA-N

> <Source>
Mulliner , Kotsampasakou

> <ID>
EK0009;HT0066

> <H_MFHB>
0

> <CAS>


> <Cholestasis>
0

> <Name>
acivicin

> <Class>
0


$$$$