
  -INDIGO-08031710012D

  4  3  0  0  0  0  0  0  0  0999 V2000
    3.0000    0.0000    0.0000 C   0  0  0  0  0  0  0  0  0  0  0  0
    1.5000    0.0000    0.0000 C   0  0  0  0  0  0  0  0  0  0  0  0
    0.7500   -1.2990    0.0000 O   0  0  0  0  0  0  0  0  0  0  0  0
    0.7500    1.2990    0.0000 C   0  0  0  0  0  0  0  0  0  0  0  0
  1  2  1  0  0  0  0
  2  3  2  0  0  0  0
  2  4  1  0  0  0  0
M  END
> <Inchi_key>
CSCPPACGZOOCGX-UHFFFAOYSA-N

> <Source>
Mulliner

> <ID>
HT0058

> <H_MFHB>
0

> <CAS>
67-64-1

> <Cholestasis>


> <Name>
acetone

> <Class>
0

$$$$