
  -INDIGO-08031710012D

 22 23  0  0  0  0  0  0  0  0999 V2000
   15.3059    1.1597    0.0000 C   0  0  0  0  0  0  0  0  0  0  0  0
   14.5500    2.4556    0.0000 C   0  0  0  0  0  0  0  0  0  0  0  0
   13.0502    2.4488    0.0000 C   0  0  0  0  0  0  0  0  0  0  0  0
   12.2943    3.7445    0.0000 C   0  0  0  0  0  0  0  0  0  0  0  0
   10.7945    3.7379    0.0000 C   0  0  0  0  0  0  0  0  0  0  0  0
   10.0386    5.0336    0.0000 O   0  0  0  0  0  0  0  0  0  0  0  0
    8.5388    5.0269    0.0000 C   0  0  0  0  0  0  0  0  0  0  0  0
    7.7944    3.7247    0.0000 C   0  0  0  0  0  0  0  0  0  0  0  0
    6.2946    3.7179    0.0000 C   0  0  0  0  0  0  0  0  0  0  0  0
    5.5387    5.0138    0.0000 C   0  0  0  0  0  0  0  0  0  0  0  0
    6.2831    6.3162    0.0000 C   0  0  0  0  0  0  0  0  0  0  0  0
    7.7831    6.3227    0.0000 C   0  0  0  0  0  0  0  0  0  0  0  0
    8.5273    7.6252    0.0000 O   0  0  0  0  0  0  0  0  0  0  0  0
    7.7716    8.9207    0.0000 C   0  0  0  0  0  0  0  0  0  0  0  0
    8.5157   10.2231    0.0000 C   0  0  0  0  0  0  0  0  0  0  0  0
    4.0389    5.0072    0.0000 C   0  0  0  0  0  0  0  0  0  0  0  0
    3.1518    6.2169    0.0000 S   0  0  0  0  0  0  0  0  0  0  0  0
    1.7272    5.7469    0.0000 C   0  0  0  0  0  0  0  0  0  0  0  0
    0.5098    6.6232    0.0000 O   0  0  0  0  0  0  0  0  0  0  0  0
    1.7337    4.2469    0.0000 N   0  0  0  0  0  0  0  0  0  0  0  0
    3.1624    3.7897    0.0000 C   0  0  0  0  0  0  0  0  0  0  0  0
    3.6323    2.3652    0.0000 O   0  0  0  0  0  0  0  0  0  0  0  0
  1  2  1  0  0  0  0
  2  3  1  0  0  0  0
  3  4  1  0  0  0  0
  4  5  1  0  0  0  0
  5  6  1  0  0  0  0
  6  7  1  0  0  0  0
  8  7  2  0  0  0  0
  7 12  1  0  0  0  0
  9  8  1  0  0  0  0
 10  9  2  0  0  0  0
 11 10  1  0  0  0  0
 10 16  1  0  0  0  0
 12 11  2  0  0  0  0
 12 13  1  0  0  0  0
 13 14  1  0  0  0  0
 14 15  1  0  0  0  0
 17 16  1  0  0  0  0
 16 21  1  0  0  0  0
 18 17  1  0  0  0  0
 18 19  2  0  0  0  0
 20 18  1  0  0  0  0
 21 20  1  0  0  0  0
 21 22  2  0  0  0  0
M  END
> <Inchi_key>
CRPGRUONUFDYBG-UHFFFAOYSA-N

> <Source>
Mulliner

> <ID>
HT1829

> <H_MFHB>
0

> <CAS>
79714-31-1

> <Cholestasis>


> <Name>
risarestat

> <Class>
0

$$$$