
  -INDIGO-08031710012D

 26 28  0  0  0  0  0  0  0  0999 V2000
   -0.5462    0.9461    0.0000 C   0  0  0  0  0  0  0  0  0  0  0  0
    0.2039    2.2451    0.0000 C   0  0  0  0  0  0  0  0  0  0  0  0
   -0.5462    3.5441    0.0000 O   0  0  0  0  0  0  0  0  0  0  0  0
    1.7038    2.2451    0.0000 O   0  0  0  0  0  0  0  0  0  0  0  0
    2.4539    3.5441    0.0000 C   0  0  0  0  0  0  0  0  0  0  0  0
    3.9538    3.5441    0.0000 C   0  0  0  0  0  0  0  0  0  0  0  0
    4.7039    4.8432    0.0000 C   0  0  0  0  0  0  0  0  0  0  0  0
    6.2038    4.8432    0.0000 N   0  0  0  0  0  0  0  0  0  0  0  0
    6.9538    3.5441    0.0000 C   0  0  0  0  0  0  0  0  0  0  0  0
    6.2038    2.2451    0.0000 S   0  0  0  0  0  0  0  0  0  0  0  0
    4.7039    2.2451    0.0000 C   0  0  0  0  0  0  0  0  0  0  0  0
    8.2528    4.2942    0.0000 C   0  0  0  0  0  0  0  0  0  0  0  0
    9.7018    3.9060    0.0000 N   0  0  0  0  0  0  0  0  0  0  0  0
   10.7625    4.9666    0.0000 C   0  0  0  0  0  0  0  0  0  0  0  0
   10.3741    6.4155    0.0000 O   0  0  0  0  0  0  0  0  0  0  0  0
   12.2112    4.5784    0.0000 C   0  0  0  0  0  0  0  0  0  0  0  0
   13.2720    5.6390    0.0000 C   0  0  0  0  0  0  0  0  0  0  0  0
   13.0371    7.1206    0.0000 C   0  0  0  0  0  0  0  0  0  0  0  0
   14.3739    7.8016    0.0000 C   0  0  0  0  0  0  0  0  0  0  0  0
   15.4344    6.7409    0.0000 C   0  0  0  0  0  0  0  0  0  0  0  0
   14.7533    5.4044    0.0000 S   0  0  0  0  0  0  0  0  0  0  0  0
    7.5027    5.5932    0.0000 C   0  0  0  0  0  0  0  0  0  0  0  0
    7.8910    7.0421    0.0000 O   0  0  0  0  0  0  0  0  0  0  0  0
    3.9538    6.1423    0.0000 C   0  0  0  0  0  0  0  0  0  0  0  0
    2.4539    6.1423    0.0000 O   0  0  0  0  0  0  0  0  0  0  0  0
    4.7039    7.4413    0.0000 O   0  0  0  0  0  0  0  0  0  0  0  0
  1  2  1  0  0  0  0
  2  3  2  0  0  0  0
  2  4  1  0  0  0  0
  4  5  1  0  0  0  0
  5  6  1  0  0  0  0
  7  6  2  0  0  0  0
  6 11  1  0  0  0  0
  8  7  1  0  0  0  0
  7 24  1  0  0  0  0
  8  9  1  0  0  0  0
 22  8  1  0  0  0  0
 10  9  1  0  0  0  0
  9 12  1  0  0  0  0
 11 10  1  0  0  0  0
 12 13  1  0  0  0  0
 12 22  1  0  0  0  0
 13 14  1  0  0  0  0
 14 15  2  0  0  0  0
 14 16  1  0  0  0  0
 16 17  1  0  0  0  0
 18 17  2  0  0  0  0
 17 21  1  0  0  0  0
 19 18  1  0  0  0  0
 20 19  2  0  0  0  0
 21 20  1  0  0  0  0
 22 23  2  0  0  0  0
 24 25  2  0  0  0  0
 24 26  1  0  0  0  0
M  END
> <Inchi_key>
XIURVHNZVLADCM-UHFFFAOYSA-N

> <Source>
Mulliner

> <ID>
HT0433

> <H_MFHB>
0

> <CAS>
58-71-9

> <Cholestasis>


> <Name>
cephalothin sodium;cefalotin;cephalothin

> <Class>
0

$$$$