
  -INDIGO-08031710012D

 29 31  0  0  0  0  0  0  0  0999 V2000
    5.7555    4.2671    0.0000 O   0  0  0  0  0  0  0  0  0  0  0  0
    5.7555    5.7671    0.0000 C   0  0  0  0  0  0  0  0  0  0  0  0
    4.4564    6.5172    0.0000 C   0  0  0  0  0  0  0  0  0  0  0  0
    4.4564    8.0172    0.0000 C   0  0  0  0  0  0  0  0  0  0  0  0
    5.7555    8.7673    0.0000 N   0  0  0  0  0  0  0  0  0  0  0  0
    7.0544    8.0172    0.0000 C   0  0  0  0  0  0  0  0  0  0  0  0
    7.0544    6.5172    0.0000 C   0  0  0  0  0  0  0  0  0  0  0  0
    3.1573    5.7671    0.0000 C   0  0  0  0  0  0  0  0  0  0  0  0
    1.8585    6.5172    0.0000 N   0  0  0  0  0  0  0  0  0  0  0  0
    3.1573    4.2671    0.0000 O   0  0  0  0  0  0  0  0  0  0  0  0
    0.5594    5.7671    0.0000 C   0  0  0  0  0  0  0  0  0  0  0  0
   -0.7397    6.5172    0.0000 C   0  0  0  0  0  0  0  0  0  0  0  0
    0.5594    4.2671    0.0000 C   0  0  0  0  0  0  0  0  0  0  0  0
   -2.0388    5.7671    0.0000 C   0  0  0  0  0  0  0  0  0  0  0  0
   -0.7397    8.0172    0.0000 C   0  0  0  0  0  0  0  0  0  0  0  0
   -0.7397    3.5172    0.0000 C   0  0  0  0  0  0  0  0  0  0  0  0
   -2.0388    4.2671    0.0000 C   0  0  0  0  0  0  0  0  0  0  0  0
    0.7604    8.0172    0.0000 C   0  0  0  0  0  0  0  0  0  0  0  0
   -0.7397    9.5172    0.0000 C   0  0  0  0  0  0  0  0  0  0  0  0
   -2.2396    8.0172    0.0000 C   0  0  0  0  0  0  0  0  0  0  0  0
   -0.7397    2.0172    0.0000 O   0  0  0  0  0  0  0  0  0  0  0  0
   -3.3377    3.5172    0.0000 C   0  0  0  0  0  0  0  0  0  0  0  0
   -4.0878    4.8164    0.0000 C   0  0  0  0  0  0  0  0  0  0  0  0
   -4.6368    2.7671    0.0000 C   0  0  0  0  0  0  0  0  0  0  0  0
   -2.5879    2.2182    0.0000 C   0  0  0  0  0  0  0  0  0  0  0  0
    8.3535    8.7673    0.0000 C   0  0  0  0  0  0  0  0  0  0  0  0
    9.6526    8.0172    0.0000 C   0  0  0  0  0  0  0  0  0  0  0  0
    9.6526    6.5172    0.0000 C   0  0  0  0  0  0  0  0  0  0  0  0
    8.3535    5.7671    0.0000 C   0  0  0  0  0  0  0  0  0  0  0  0
  1  2  2  0  0  0  0
  3  2  1  0  0  0  0
  4  3  2  0  0  0  0
  5  4  1  0  0  0  0
  6  5  1  0  0  0  0
  6  7  2  0  0  0  0
  2  7  1  0  0  0  0
  3  8  1  0  0  0  0
  8  9  1  0  0  0  0
  8 10  2  0  0  0  0
  9 11  1  0  0  0  0
 12 11  2  0  0  0  0
 11 13  1  0  0  0  0
 14 12  1  0  0  0  0
 12 15  1  0  0  0  0
 13 16  2  0  0  0  0
 17 14  2  0  0  0  0
 15 18  1  0  0  0  0
 15 19  1  0  0  0  0
 15 20  1  0  0  0  0
 16 17  1  0  0  0  0
 16 21  1  0  0  0  0
 17 22  1  0  0  0  0
 22 23  1  0  0  0  0
 22 24  1  0  0  0  0
 22 25  1  0  0  0  0
 26  6  1  0  0  0  0
 27 26  2  0  0  0  0
 28 27  1  0  0  0  0
 29 28  2  0  0  0  0
  7 29  1  0  0  0  0
M  END
> <Inchi_key>
PURKAOJPTOLRMP-UHFFFAOYSA-N

> <Source>
Mulliner

> <ID>
HT1149

> <H_MFHB>
0

> <CAS>


> <Cholestasis>


> <Name>
ivacaftor

> <Class>
0

$$$$