
  -INDIGO-08031710012D

 24 27  0  0  0  0  0  0  0  0999 V2000
    7.6490   -7.7038    0.0000 C   0  0  0  0  0  0  0  0  0  0  0  0
    7.6596   -6.2039    0.0000 C   0  0  0  0  0  0  0  0  0  0  0  0
    8.9639   -5.4632    0.0000 C   0  0  0  0  0  0  0  0  0  0  0  0
   10.2576   -6.2224    0.0000 O   0  0  0  0  0  0  0  0  0  0  0  0
    6.3659   -5.4446    0.0000 N   0  0  0  0  0  0  0  0  0  0  0  0
    5.0616   -6.1853    0.0000 C   0  0  0  0  0  0  0  0  0  0  0  0
    5.0510   -7.6852    0.0000 O   0  0  0  0  0  0  0  0  0  0  0  0
    3.7679   -5.4260    0.0000 C   0  0  0  0  0  0  0  0  0  0  0  0
    3.7788   -3.9260    0.0000 C   0  0  0  0  0  0  0  0  0  0  0  0
    2.4851   -3.1668    0.0000 N   0  0  0  0  0  0  0  0  0  0  0  0
    2.4841   -1.6668    0.0000 C   0  0  0  0  0  0  0  0  0  0  0  0
    1.1731   -3.9406    0.0000 C   0  0  0  0  0  0  0  0  0  0  0  0
   -0.1012   -3.2135    0.0000 C   0  0  0  0  0  0  0  0  0  0  0  0
   -1.3665   -3.9506    0.0000 C   0  0  0  0  0  0  0  0  0  0  0  0
   -2.7865   -3.4753    0.0000 C   0  0  0  0  0  0  0  0  0  0  0  0
   -3.7027   -5.1007    0.0000 N   0  0  0  0  0  0  0  0  0  0  0  0
   -2.6255   -6.1574    0.0000 C   0  0  0  0  0  0  0  0  0  0  0  0
   -2.6148   -7.6292    0.0000 C   0  0  0  0  0  0  0  0  0  0  0  0
   -1.3373   -8.3552    0.0000 C   0  0  0  0  0  0  0  0  0  0  0  0
   -0.0786   -7.6110    0.0000 C   0  0  0  0  0  0  0  0  0  0  0  0
   -0.0835   -6.1487    0.0000 C   0  0  0  0  0  0  0  0  0  0  0  0
    1.1778   -5.4030    0.0000 C   0  0  0  0  0  0  0  0  0  0  0  0
    2.4636   -6.1667    0.0000 C   0  0  0  0  0  0  0  0  0  0  0  0
   -1.3567   -5.4192    0.0000 C   0  0  0  0  0  0  0  0  0  0  0  0
  1  2  1  0  0  0  0
  2  3  1  0  0  0  0
  2  5  1  0  0  0  0
  3  4  1  0  0  0  0
  5  6  1  0  0  0  0
  6  7  2  0  0  0  0
  6  8  1  0  0  0  0
  9  8  1  0  0  0  0
  8 23  1  0  0  0  0
 10  9  1  0  0  0  0
 10 11  1  0  0  0  0
 12 10  1  0  0  0  0
 13 12  1  0  0  0  0
 12 22  1  0  0  0  0
 14 13  1  0  0  0  0
 15 14  2  0  0  0  0
 14 24  1  0  0  0  0
 16 15  1  0  0  0  0
 17 16  1  0  0  0  0
 17 18  1  0  0  0  0
 24 17  2  0  0  0  0
 18 19  2  0  0  0  0
 19 20  1  0  0  0  0
 20 21  2  0  0  0  0
 22 21  1  0  0  0  0
 21 24  1  0  0  0  0
 23 22  2  0  0  0  0
M  END
> <Inchi_key>
WVVSZNPYNCNODU-UHFFFAOYSA-N

> <Source>
Mulliner , Kotsampasakou

> <ID>
EK0190;HT0778

> <H_MFHB>
0

> <CAS>
129-51-1

> <Cholestasis>
0

> <Name>
ergonovine maleate;ergonovine

> <Class>
0

$$$$