

  -INDIGO-08031710012D

 30 33  0  0  0  0  0  0  0  0999 V2000
    3.8250    6.6251    0.0000 C   0  0  0  0  0  0  0  0  0  0  0  0
    4.5751    5.3261    0.0000 O   0  0  0  0  0  0  0  0  0  0  0  0
    3.8250    4.0270    0.0000 C   0  0  0  0  0  0  0  0  0  0  0  0
    2.3250    4.0270    0.0000 C   0  0  0  0  0  0  0  0  0  0  0  0
    1.5749    2.7280    0.0000 C   0  0  0  0  0  0  0  0  0  0  0  0
    0.0749    2.7280    0.0000 C   0  0  0  0  0  0  0  0  0  0  0  0
   -0.6749    4.0270    0.0000 N   0  0  0  0  0  0  0  0  0  0  0  0
   -2.1751    4.0270    0.0000 C   0  0  0  0  0  0  0  0  0  0  0  0
   -2.9250    2.7280    0.0000 C   0  0  0  0  0  0  0  0  0  0  0  0
   -4.4249    2.7280    0.0000 C   0  0  0  0  0  0  0  0  0  0  0  0
   -5.1750    4.0270    0.0000 C   0  0  0  0  0  0  0  0  0  0  0  0
   -6.6750    4.0270    0.0000 Br  0  0  0  0  0  0  0  0  0  0  0  0
   -4.4249    5.3261    0.0000 C   0  0  0  0  0  0  0  0  0  0  0  0
   -2.9250    5.3261    0.0000 C   0  0  0  0  0  0  0  0  0  0  0  0
   -2.1751    6.6251    0.0000 F   0  0  0  0  0  0  0  0  0  0  0  0
   -0.6749    1.4289    0.0000 N   0  0  0  0  0  0  0  0  0  0  0  0
    0.0749    0.1299    0.0000 C   0  0  0  0  0  0  0  0  0  0  0  0
    1.5749    0.1299    0.0000 N   0  0  0  0  0  0  0  0  0  0  0  0
    2.3250    1.4289    0.0000 C   0  0  0  0  0  0  0  0  0  0  0  0
    3.8250    1.4289    0.0000 C   0  0  0  0  0  0  0  0  0  0  0  0
    4.5751    2.7280    0.0000 C   0  0  0  0  0  0  0  0  0  0  0  0
    6.0751    2.7280    0.0000 O   0  0  0  0  0  0  0  0  0  0  0  0
    6.8249    1.4289    0.0000 C   0  0  0  0  0  0  0  0  0  0  0  0
    8.3251    1.4289    0.0000 C   0  0  0  0  0  0  0  0  0  0  0  0
    9.0750    0.1299    0.0000 C   0  0  0  0  0  0  0  0  0  0  0  0
   10.5749    0.1299    0.0000 C   0  0  0  0  0  0  0  0  0  0  0  0
   11.3250    1.4289    0.0000 N   0  0  0  0  0  0  0  0  0  0  0  0
   12.8250    1.4289    0.0000 C   0  0  0  0  0  0  0  0  0  0  0  0
   10.5749    2.7280    0.0000 C   0  0  0  0  0  0  0  0  0  0  0  0
    9.0750    2.7280    0.0000 C   0  0  0  0  0  0  0  0  0  0  0  0
  1  2  1  0  0  0  0
  2  3  1  0  0  0  0
  4  3  2  0  0  0  0
  3 21  1  0  0  0  0
  5  4  1  0  0  0  0
  6  5  2  0  0  0  0
  5 19  1  0  0  0  0
  6  7  1  0  0  0  0
 16  6  1  0  0  0  0
  7  8  1  0  0  0  0
  9  8  2  0  0  0  0
  8 14  1  0  0  0  0
 10  9  1  0  0  0  0
 11 10  2  0  0  0  0
 11 12  1  0  0  0  0
 13 11  1  0  0  0  0
 14 13  2  0  0  0  0
 14 15  1  0  0  0  0
 17 16  2  0  0  0  0
 18 17  1  0  0  0  0
 19 18  2  0  0  0  0
 20 19  1  0  0  0  0
 21 20  2  0  0  0  0
 21 22  1  0  0  0  0
 22 23  1  0  0  0  0
 23 24  1  0  0  0  0
 25 24  1  0  0  0  0
 24 30  1  0  0  0  0
 26 25  1  0  0  0  0
 27 26  1  0  0  0  0
 27 28  1  0  0  0  0
 29 27  1  0  0  0  0
 30 29  1  0  0  0  0
M  END
> <Inchi_key>
UHTHHESEBZOYNR-UHFFFAOYSA-N

> <Source>
Mulliner

> <ID>
HT2166

> <H_MFHB>
0

> <CAS>


> <Cholestasis>


> <Name>
vandetanib

> <Class>
0


$$$$