
  -INDIGO-08031710012D

 23 25  0  0  0  0  0  0  0  0999 V2000
   -1.2936   -4.8276    0.0000 C   0  0  0  0  0  0  0  0  0  0  0  0
    0.0055   -5.5776    0.0000 N   0  0  0  0  0  0  0  0  0  0  0  0
    1.3044   -4.8276    0.0000 C   0  0  0  0  0  0  0  0  0  0  0  0
    1.3044   -3.3276    0.0000 C   0  0  0  0  0  0  0  0  0  0  0  0
    0.0055   -2.5776    0.0000 O   0  0  0  0  0  0  0  0  0  0  0  0
    2.6035   -2.5776    0.0000 C   0  0  0  0  0  0  0  0  0  0  0  0
    2.6035   -1.0776    0.0000 N   0  0  0  0  0  0  0  0  0  0  0  0
    1.3044   -0.3276    0.0000 C   0  0  0  0  0  0  0  0  0  0  0  0
    3.9026   -3.3276    0.0000 C   0  0  0  0  0  0  0  0  0  0  0  0
    5.2016   -2.5776    0.0000 O   0  0  0  0  0  0  0  0  0  0  0  0
    6.5007   -3.3276    0.0000 C   0  0  0  0  0  0  0  0  0  0  0  0
    6.5007   -1.8276    0.0000 O   0  0  0  0  0  0  0  0  0  0  0  0
    6.5007   -4.8276    0.0000 C   0  0  0  0  0  0  0  0  0  0  0  0
    7.7998   -5.5776    0.0000 O   0  0  0  0  0  0  0  0  0  0  0  0
    9.0987   -4.8276    0.0000 C   0  0  0  0  0  0  0  0  0  0  0  0
   10.3978   -5.5776    0.0000 C   0  0  0  0  0  0  0  0  0  0  0  0
    9.0987   -3.3276    0.0000 C   0  0  0  0  0  0  0  0  0  0  0  0
    7.7998   -2.5776    0.0000 C   0  0  0  0  0  0  0  0  0  0  0  0
    7.7998   -1.0776    0.0000 O   0  0  0  0  0  0  0  0  0  0  0  0
    5.2016   -5.5776    0.0000 O   0  0  0  0  0  0  0  0  0  0  0  0
    3.9026   -4.8276    0.0000 C   0  0  0  0  0  0  0  0  0  0  0  0
    2.6035   -5.5776    0.0000 C   0  0  0  0  0  0  0  0  0  0  0  0
    2.6035   -7.0776    0.0000 O   0  0  0  0  0  0  0  0  0  0  0  0
  1  2  1  0  0  0  0
  2  3  1  0  0  0  0
  4  3  1  0  0  0  0
  3 22  1  0  0  0  0
  4  5  1  0  0  0  0
  6  4  1  0  0  0  0
  6  7  1  0  0  0  0
  9  6  1  0  0  0  0
  7  8  1  0  0  0  0
 10  9  1  0  0  0  0
  9 21  1  0  0  0  0
 11 10  1  0  0  0  0
 11 12  1  0  0  0  0
 11 13  1  0  0  0  0
 18 11  1  0  0  0  0
 13 14  1  0  0  0  0
 20 13  1  0  0  0  0
 14 15  1  0  0  0  0
 15 16  1  0  0  0  0
 15 17  1  0  0  0  0
 17 18  1  0  0  0  0
 18 19  2  0  0  0  0
 21 20  1  0  0  0  0
 22 21  1  0  0  0  0
 22 23  1  0  0  0  0
M  END
> <Inchi_key>
UNFWWIHTNXNPBV-UHFFFAOYSA-N

> <Source>
Mulliner

> <ID>
HT1909

> <H_MFHB>
0

> <CAS>
21736-83-4

> <Cholestasis>


> <Name>
spectinomycin hydrochloride;spectinomycin

> <Class>
0

$$$$