
  -INDIGO-08031710012D

 44 46  0  0  0  0  0  0  0  0999 V2000
   32.8662   -5.4129    0.0000 C   0  0  0  0  0  0  0  0  0  0  0  0
   31.3661   -5.4129    0.0000 C   0  0  0  0  0  0  0  0  0  0  0  0
   30.6160   -6.7120    0.0000 C   0  0  0  0  0  0  0  0  0  0  0  0
   30.6160   -4.1140    0.0000 C   0  0  0  0  0  0  0  0  0  0  0  0
   29.1163   -4.1140    0.0000 C   0  0  0  0  0  0  0  0  0  0  0  0
   28.3663   -2.8149    0.0000 C   0  0  0  0  0  0  0  0  0  0  0  0
   26.8661   -2.8149    0.0000 C   0  0  0  0  0  0  0  0  0  0  0  0
   26.1161   -1.5158    0.0000 C   0  0  0  0  0  0  0  0  0  0  0  0
   26.1161   -4.1140    0.0000 C   0  0  0  0  0  0  0  0  0  0  0  0
   24.6164   -4.1140    0.0000 C   0  0  0  0  0  0  0  0  0  0  0  0
   23.8663   -5.4129    0.0000 C   0  0  0  0  0  0  0  0  0  0  0  0
   22.3662   -5.4129    0.0000 C   0  0  0  0  0  0  0  0  0  0  0  0
   21.6161   -6.7120    0.0000 C   0  0  0  0  0  0  0  0  0  0  0  0
   21.6161   -4.1140    0.0000 C   0  0  0  0  0  0  0  0  0  0  0  0
   20.1160   -4.1140    0.0000 C   0  0  0  0  0  0  0  0  0  0  0  0
   19.3664   -2.8149    0.0000 C   0  0  0  0  0  0  0  0  0  0  0  0
   17.8663   -2.8149    0.0000 C   0  0  0  0  0  0  0  0  0  0  0  0
   18.6164   -4.1140    0.0000 C   0  0  0  0  0  0  0  0  0  0  0  0
   17.8663   -1.3149    0.0000 C   0  0  0  0  0  0  0  0  0  0  0  0
   16.5673   -0.5649    0.0000 C   0  0  0  0  0  0  0  0  0  0  0  0
   15.2679   -1.3149    0.0000 C   0  0  0  0  0  0  0  0  0  0  0  0
   13.9689   -0.5649    0.0000 C   0  0  0  0  0  0  0  0  0  0  0  0
   13.9689    0.9351    0.0000 C   0  0  0  0  0  0  0  0  0  0  0  0
   12.6700   -1.3149    0.0000 C   0  0  0  0  0  0  0  0  0  0  0  0
   11.3710   -0.5649    0.0000 O   0  0  0  0  0  0  0  0  0  0  0  0
   10.0720   -1.3149    0.0000 C   0  0  0  0  0  0  0  0  0  0  0  0
   10.0720   -2.8149    0.0000 O   0  0  0  0  0  0  0  0  0  0  0  0
    8.7731   -0.5649    0.0000 C   0  0  0  0  0  0  0  0  0  0  0  0
    8.0230   -1.8639    0.0000 C   0  0  0  0  0  0  0  0  0  0  0  0
    9.5227    0.7342    0.0000 C   0  0  0  0  0  0  0  0  0  0  0  0
    7.4741    0.1852    0.0000 O   0  0  0  0  0  0  0  0  0  0  0  0
    6.1747   -0.5649    0.0000 C   0  0  0  0  0  0  0  0  0  0  0  0
    4.8757    0.1852    0.0000 C   0  0  0  0  0  0  0  0  0  0  0  0
    3.5768   -0.5649    0.0000 C   0  0  0  0  0  0  0  0  0  0  0  0
    3.5768   -2.0649    0.0000 C   0  0  0  0  0  0  0  0  0  0  0  0
    2.2778   -2.8149    0.0000 Cl  0  0  0  0  0  0  0  0  0  0  0  0
    4.8757   -2.8149    0.0000 C   0  0  0  0  0  0  0  0  0  0  0  0
    6.1747   -2.0649    0.0000 C   0  0  0  0  0  0  0  0  0  0  0  0
   12.6700   -2.8149    0.0000 C   0  0  0  0  0  0  0  0  0  0  0  0
   11.3710   -3.5649    0.0000 C   0  0  0  0  0  0  0  0  0  0  0  0
   13.9689   -3.5649    0.0000 C   0  0  0  0  0  0  0  0  0  0  0  0
   13.9689   -5.0648    0.0000 C   0  0  0  0  0  0  0  0  0  0  0  0
   15.2679   -2.8149    0.0000 C   0  0  0  0  0  0  0  0  0  0  0  0
   16.5673   -3.5649    0.0000 O   0  0  0  0  0  0  0  0  0  0  0  0
  1  2  1  0  0  0  0
  2  3  1  0  0  0  0
  2  4  1  0  0  0  0
  4  5  1  0  0  0  0
  5  6  1  0  0  0  0
  6  7  1  0  0  0  0
  7  8  1  0  0  0  0
  7  9  1  0  0  0  0
  9 10  1  0  0  0  0
 10 11  1  0  0  0  0
 11 12  1  0  0  0  0
 12 13  1  0  0  0  0
 12 14  1  0  0  0  0
 14 15  1  0  0  0  0
 15 16  1  0  0  0  0
 16 17  1  0  0  0  0
 17 18  1  0  0  0  0
 19 17  1  0  0  0  0
 17 44  1  0  0  0  0
 20 19  1  0  0  0  0
 21 20  1  0  0  0  0
 22 21  1  0  0  0  0
 21 43  2  0  0  0  0
 22 23  1  0  0  0  0
 24 22  2  0  0  0  0
 24 25  1  0  0  0  0
 39 24  1  0  0  0  0
 25 26  1  0  0  0  0
 26 27  2  0  0  0  0
 26 28  1  0  0  0  0
 28 29  1  0  0  0  0
 28 30  1  0  0  0  0
 28 31  1  0  0  0  0
 31 32  1  0  0  0  0
 33 32  2  0  0  0  0
 32 38  1  0  0  0  0
 34 33  1  0  0  0  0
 35 34  2  0  0  0  0
 35 36  1  0  0  0  0
 37 35  1  0  0  0  0
 38 37  2  0  0  0  0
 39 40  1  0  0  0  0
 41 39  2  0  0  0  0
 41 42  1  0  0  0  0
 43 41  1  0  0  0  0
 44 43  1  0  0  0  0
M  END
> <Inchi_key>
VPRFDABTJNLKKR-UHFFFAOYSA-N

> <Source>
Mulliner

> <ID>
HT2075

> <H_MFHB>
0

> <CAS>
50465-39-9

> <Cholestasis>


> <Name>
tocofibrate

> <Class>
0

$$$$