
  -INDIGO-08031709442D

 24 28  0  0  0  0  0  0  0  0999 V2000
    0.7094    2.6590    0.0000 O   0  0  0  0  0  0  0  0  0  0  0  0
    2.0101    1.9118    0.0000 C   0  0  0  0  0  0  0  0  0  0  0  0
    2.0134    0.4118    0.0000 O   0  0  0  0  0  0  0  0  0  0  0  0
    3.3074    2.6646    0.0000 C   0  0  0  0  0  0  0  0  0  0  0  0
    4.6790    2.0575    0.0000 C   0  0  0  0  0  0  0  0  0  0  0  0
    5.6804    3.1744    0.0000 C   0  0  0  0  0  0  0  0  0  0  0  0
    4.9275    4.4718    0.0000 N   0  0  0  0  0  0  0  0  0  0  0  0
    3.4611    4.1568    0.0000 C   0  0  0  0  0  0  0  0  0  0  0  0
    7.1482    2.8657    0.0000 C   0  0  0  0  0  0  0  0  0  0  0  0
    7.6149    1.4401    0.0000 C   0  0  0  0  0  0  0  0  0  0  0  0
    6.6135    0.3232    0.0000 C   0  0  0  0  0  0  0  0  0  0  0  0
    5.1457    0.6319    0.0000 C   0  0  0  0  0  0  0  0  0  0  0  0
   -0.5879    1.9062    0.0000 C   0  0  0  0  0  0  0  0  0  0  0  0
   -2.0081    2.7253    0.0000 C   0  0  0  0  0  0  0  0  0  0  0  0
   -3.4345    1.8910    0.0000 C   0  0  0  0  0  0  0  0  0  0  0  0
   -3.4201    0.2513    0.0000 N   0  0  0  0  0  0  0  0  0  0  0  0
   -4.3616   -1.1888    0.0000 C   0  0  0  0  0  0  0  0  0  0  0  0
   -5.4525   -0.8079    0.0000 C   0  0  0  0  0  0  0  0  0  0  0  0
   -6.9137   -1.1472    0.0000 O   0  0  0  0  0  0  0  0  0  0  0  0
   -4.6145    0.0396    0.0000 C   0  0  0  0  0  0  0  0  0  0  0  0
   -4.6172    1.5490    0.0000 C   0  0  0  0  0  0  0  0  0  0  0  0
   -3.2742   -0.7305    0.0000 C   0  0  0  0  0  0  0  0  0  0  0  0
   -1.9921   -0.5657    0.0000 C   0  0  0  0  0  0  0  0  0  0  0  0
   -0.5815    0.2726    0.0000 C   0  0  0  0  0  0  0  0  0  0  0  0
  1  2  1  0  0  0  0
  1 13  1  0  0  0  0
  2  3  2  0  0  0  0
  2  4  1  0  0  0  0
  5  4  1  0  0  0  0
  4  8  2  0  0  0  0
  5  6  2  0  0  0  0
 12  5  1  0  0  0  0
  7  6  1  0  0  0  0
  6  9  1  0  0  0  0
  8  7  1  0  0  0  0
  9 10  2  0  0  0  0
 10 11  1  0  0  0  0
 11 12  2  0  0  0  0
 14 13  1  0  0  0  0
 13 24  1  0  0  0  0
 15 14  1  0  0  0  0
 15 16  1  0  0  0  0
 21 15  1  0  0  0  0
 16 17  1  0  0  0  0
 16 23  1  0  0  0  0
 17 18  1  0  0  0  0
 18 19  2  0  0  0  0
 18 20  1  0  0  0  0
 20 21  1  0  0  0  0
 22 20  1  0  0  0  0
 23 22  1  0  0  0  0
 24 23  1  0  0  0  0
M  END
> <Inchi_key>
UKTAZPQNNNJVKR-UHFFFAOYSA-N

> <Source>
Kotsampasakou

> <ID>
EK0173

> <H_MFHB>


> <CAS>


> <Cholestasis>
0

> <Name>
dolasetron

> <Class>
0

$$$$