

  -INDIGO-08031710012D

 12 12  0  0  0  0  0  0  0  0999 V2000
    8.1819   -2.8216    0.0000 O   0  0  0  0  0  0  0  0  0  0  0  0
    6.6819   -2.8216    0.0000 C   0  0  0  0  0  0  0  0  0  0  0  0
    5.9320   -1.5226    0.0000 C   0  0  0  0  0  0  0  0  0  0  0  0
    6.6819   -0.2235    0.0000 O   0  0  0  0  0  0  0  0  0  0  0  0
    4.4319   -1.5226    0.0000 C   0  0  0  0  0  0  0  0  0  0  0  0
    3.5503   -2.7361    0.0000 O   0  0  0  0  0  0  0  0  0  0  0  0
    2.1237   -2.2726    0.0000 C   0  0  0  0  0  0  0  0  0  0  0  0
    0.9101   -3.1542    0.0000 O   0  0  0  0  0  0  0  0  0  0  0  0
    2.1237   -0.7726    0.0000 C   0  0  0  0  0  0  0  0  0  0  0  0
    0.9101    0.1091    0.0000 O   0  0  0  0  0  0  0  0  0  0  0  0
    3.5503   -0.3090    0.0000 C   0  0  0  0  0  0  0  0  0  0  0  0
    4.0138    1.1176    0.0000 O   0  0  0  0  0  0  0  0  0  0  0  0
  1  2  1  0  0  0  0
  2  3  1  0  0  0  0
  3  4  1  0  0  0  0
  3  5  1  0  0  0  0
  6  5  1  0  0  0  0
  5 11  1  0  0  0  0
  7  6  1  0  0  0  0
  7  8  2  0  0  0  0
  9  7  1  0  0  0  0
  9 10  1  0  0  0  0
 11  9  2  0  0  0  0
 11 12  1  0  0  0  0
M  END
> <Inchi_key>
CIWBSHSKHKDKBQ-UHFFFAOYSA-N

> <Source>
Mulliner

> <ID>
HT0186

> <H_MFHB>
0

> <CAS>
50-81-7

> <Cholestasis>


> <Name>
ascorbic acid

> <Class>
0


$$$$