

  -INDIGO-08031710012D

 13 13  0  0  0  0  0  0  0  0999 V2000
    8.9544   -2.3993    0.0000 O   0  0  0  0  0  0  0  0  0  0  0  0
    7.6554   -1.6493    0.0000 C   0  0  0  0  0  0  0  0  0  0  0  0
    7.6554   -0.1493    0.0000 O   0  0  0  0  0  0  0  0  0  0  0  0
    6.3565   -2.3993    0.0000 C   0  0  0  0  0  0  0  0  0  0  0  0
    5.0574   -1.6493    0.0000 N   0  0  0  0  0  0  0  0  0  0  0  0
    3.7583   -2.3993    0.0000 C   0  0  0  0  0  0  0  0  0  0  0  0
    2.4592   -1.6493    0.0000 C   0  0  0  0  0  0  0  0  0  0  0  0
    1.1602   -2.3993    0.0000 I   0  0  0  0  0  0  0  0  0  0  0  0
    2.4592   -0.1493    0.0000 C   0  0  0  0  0  0  0  0  0  0  0  0
    1.1602    0.6007    0.0000 O   0  0  0  0  0  0  0  0  0  0  0  0
    3.7583    0.6007    0.0000 C   0  0  0  0  0  0  0  0  0  0  0  0
    5.0574   -0.1493    0.0000 C   0  0  0  0  0  0  0  0  0  0  0  0
    3.7583    2.1007    0.0000 I   0  0  0  0  0  0  0  0  0  0  0  0
  1  2  1  0  0  0  0
  2  3  2  0  0  0  0
  2  4  1  0  0  0  0
  4  5  1  0  0  0  0
  6  5  1  0  0  0  0
  5 12  1  0  0  0  0
  7  6  2  0  0  0  0
  7  8  1  0  0  0  0
  9  7  1  0  0  0  0
  9 10  2  0  0  0  0
 11  9  1  0  0  0  0
 12 11  2  0  0  0  0
 11 13  1  0  0  0  0
M  END
> <Inchi_key>
PVBALTLWZVEAIO-UHFFFAOYSA-N

> <Source>
Mulliner

> <ID>
HT3774

> <H_MFHB>
0

> <CAS>


> <Cholestasis>


> <Name>


> <Class>
0


$$$$