
  -INDIGO-08031710012D

 48 50  0  0  0  0  0  0  0  0999 V2000
   20.9885    0.9263    0.0000 C   0  0  0  0  0  0  0  0  0  0  0  0
   19.7072    0.1465    0.0000 C   0  0  0  0  0  0  0  0  0  0  0  0
   19.7419   -1.3531    0.0000 N   0  0  0  0  0  0  0  0  0  0  0  0
   21.0579   -2.0729    0.0000 C   0  0  0  0  0  0  0  0  0  0  0  0
   22.3392   -1.2931    0.0000 C   0  0  0  0  0  0  0  0  0  0  0  0
   18.4604   -2.1332    0.0000 C   0  0  0  0  0  0  0  0  0  0  0  0
   17.1444   -1.4133    0.0000 C   0  0  0  0  0  0  0  0  0  0  0  0
   15.8631   -2.1932    0.0000 S   0  0  0  0  0  0  0  0  0  0  0  0
   16.6432   -3.4745    0.0000 O   0  0  0  0  0  0  0  0  0  0  0  0
   15.0834   -0.9120    0.0000 O   0  0  0  0  0  0  0  0  0  0  0  0
   14.5818   -2.9730    0.0000 C   0  0  0  0  0  0  0  0  0  0  0  0
   14.9540   -4.4415    0.0000 C   0  0  0  0  0  0  0  0  0  0  0  0
   13.6618   -5.2405    0.0000 C   0  0  0  0  0  0  0  0  0  0  0  0
   12.5496   -4.2187    0.0000 N   0  0  0  0  0  0  0  0  0  0  0  0
   13.0584   -2.9312    0.0000 C   0  0  0  0  0  0  0  0  0  0  0  0
   12.7216   -1.6028    0.0000 C   0  0  0  0  0  0  0  0  0  0  0  0
   14.0376   -0.8831    0.0000 O   0  0  0  0  0  0  0  0  0  0  0  0
   11.3881   -0.9270    0.0000 O   0  0  0  0  0  0  0  0  0  0  0  0
   11.3041    0.5633    0.0000 C   0  0  0  0  0  0  0  0  0  0  0  0
   12.5999    1.3184    0.0000 C   0  0  0  0  0  0  0  0  0  0  0  0
   13.9020    0.5735    0.0000 C   0  0  0  0  0  0  0  0  0  0  0  0
   12.5939    2.8185    0.0000 C   0  0  0  0  0  0  0  0  0  0  0  0
   10.0963    1.3408    0.0000 C   0  0  0  0  0  0  0  0  0  0  0  0
   10.2498    2.8329    0.0000 C   0  0  0  0  0  0  0  0  0  0  0  0
    8.7048    0.8059    0.0000 C   0  0  0  0  0  0  0  0  0  0  0  0
    7.5397    1.7553    0.0000 C   0  0  0  0  0  0  0  0  0  0  0  0
    6.1470    1.3048    0.0000 C   0  0  0  0  0  0  0  0  0  0  0  0
    5.0655    2.3442    0.0000 O   0  0  0  0  0  0  0  0  0  0  0  0
    5.7443   -0.1298    0.0000 N   0  0  0  0  0  0  0  0  0  0  0  0
    4.2801   -0.4982    0.0000 C   0  0  0  0  0  0  0  0  0  0  0  0
    3.8726   -1.9315    0.0000 C   0  0  0  0  0  0  0  0  0  0  0  0
    2.4110   -2.3075    0.0000 C   0  0  0  0  0  0  0  0  0  0  0  0
    2.0799   -3.8041    0.0000 C   0  0  0  0  0  0  0  0  0  0  0  0
    3.2176   -4.7627    0.0000 C   0  0  0  0  0  0  0  0  0  0  0  0
    2.9784   -6.2453    0.0000 C   0  0  0  0  0  0  0  0  0  0  0  0
    1.5959   -6.8272    0.0000 O   0  0  0  0  0  0  0  0  0  0  0  0
    4.2447   -7.1377    0.0000 C   0  0  0  0  0  0  0  0  0  0  0  0
    5.5594   -6.4139    0.0000 C   0  0  0  0  0  0  0  0  0  0  0  0
    5.5836   -4.9141    0.0000 O   0  0  0  0  0  0  0  0  0  0  0  0
    6.8519   -7.1805    0.0000 C   0  0  0  0  0  0  0  0  0  0  0  0
    8.1286   -6.7101    0.0000 C   0  0  0  0  0  0  0  0  0  0  0  0
    9.1074   -7.7927    0.0000 O   0  0  0  0  0  0  0  0  0  0  0  0
   10.5055   -7.0996    0.0000 C   0  0  0  0  0  0  0  0  0  0  0  0
   10.2286   -5.6506    0.0000 C   0  0  0  0  0  0  0  0  0  0  0  0
    8.7803   -5.3958    0.0000 N   0  0  0  0  0  0  0  0  0  0  0  0
   11.3650   -4.9341    0.0000 C   0  0  0  0  0  0  0  0  0  0  0  0
   10.5773   -3.6576    0.0000 O   0  0  0  0  0  0  0  0  0  0  0  0
    0.6590   -4.2846    0.0000 C   0  0  0  0  0  0  0  0  0  0  0  0
  1  2  1  0  0  0  0
  2  3  1  0  0  0  0
  3  4  1  0  0  0  0
  3  6  1  0  0  0  0
  4  5  1  0  0  0  0
  6  7  1  0  0  0  0
  7  8  1  0  0  0  0
  8  9  2  0  0  0  0
  8 10  2  0  0  0  0
  8 11  1  0  0  0  0
 12 11  1  0  0  0  0
 11 15  1  0  0  0  0
 13 12  1  0  0  0  0
 14 13  1  0  0  0  0
 14 15  1  0  0  0  0
 46 14  1  0  0  0  0
 15 16  1  0  0  0  0
 16 17  2  0  0  0  0
 16 18  1  0  0  0  0
 18 19  1  0  0  0  0
 19 20  1  0  0  0  0
 19 23  1  0  0  0  0
 20 21  1  0  0  0  0
 20 22  1  0  0  0  0
 23 24  1  0  0  0  0
 23 25  1  0  0  0  0
 25 26  2  0  0  0  0
 26 27  1  0  0  0  0
 27 28  2  0  0  0  0
 27 29  1  0  0  0  0
 29 30  1  0  0  0  0
 30 31  1  0  0  0  0
 31 32  2  0  0  0  0
 32 33  1  0  0  0  0
 33 34  2  0  0  0  0
 33 48  1  0  0  0  0
 34 35  1  0  0  0  0
 35 36  1  0  0  0  0
 35 37  1  0  0  0  0
 37 38  1  0  0  0  0
 38 39  2  0  0  0  0
 38 40  1  0  0  0  0
 40 41  1  0  0  0  0
 42 41  1  0  0  0  0
 41 45  2  0  0  0  0
 43 42  1  0  0  0  0
 44 43  2  0  0  0  0
 45 44  1  0  0  0  0
 44 46  1  0  0  0  0
 46 47  2  0  0  0  0
M  END
> <Inchi_key>
SUYRLXYYZQTJHF-SFZTYLOZSA-N

> <Source>
Mulliner

> <ID>
HT0585

> <H_MFHB>
0

> <CAS>


> <Cholestasis>


> <Name>
dalfopristin

> <Class>
0

$$$$