
  -INDIGO-08031710012D

 18 20  0  0  0  0  0  0  0  0999 V2000
    2.5151    0.8956    0.0000 C   0  0  0  0  0  0  0  0  0  0  0  0
    1.3527   -0.0525    0.0000 C   0  0  0  0  0  0  0  0  0  0  0  0
    0.7735    1.4722    0.0000 C   0  0  0  0  0  0  0  0  0  0  0  0
   -0.7942    1.3240    0.0000 C   0  0  0  0  0  0  0  0  0  0  0  0
   -1.5727    0.1436    0.0000 C   0  0  0  0  0  0  0  0  0  0  0  0
   -2.1936   -1.1280    0.0000 C   0  0  0  0  0  0  0  0  0  0  0  0
   -1.5284   -2.5543    0.0000 C   0  0  0  0  0  0  0  0  0  0  0  0
    0.0800   -2.2794    0.0000 C   0  0  0  0  0  0  0  0  0  0  0  0
    1.3577   -2.9818    0.0000 C   0  0  0  0  0  0  0  0  0  0  0  0
    2.6145   -2.2537    0.0000 C   0  0  0  0  0  0  0  0  0  0  0  0
    3.8967   -3.0211    0.0000 C   0  0  0  0  0  0  0  0  0  0  0  0
    5.2010   -2.2807    0.0000 C   0  0  0  0  0  0  0  0  0  0  0  0
    5.2141   -0.7808    0.0000 C   0  0  0  0  0  0  0  0  0  0  0  0
    6.5197   -0.0421    0.0000 O   0  0  0  0  0  0  0  0  0  0  0  0
    3.9217   -0.0195    0.0000 C   0  0  0  0  0  0  0  0  0  0  0  0
    2.6069   -0.8001    0.0000 C   0  0  0  0  0  0  0  0  0  0  0  0
    0.0978   -0.8124    0.0000 C   0  0  0  0  0  0  0  0  0  0  0  0
    1.4001   -1.5567    0.0000 N   0  0  0  0  0  0  0  0  0  0  0  0
  1  2  1  0  0  0  0
  3  2  1  0  0  0  0
 16  2  1  0  0  0  0
  2 17  1  0  0  0  0
  4  3  1  0  0  0  0
  5  4  1  0  0  0  0
  6  5  1  0  0  0  0
  7  6  1  0  0  0  0
  8  7  1  0  0  0  0
  8  9  1  0  0  0  0
 17  8  1  0  0  0  0
  9 10  1  0  0  0  0
 11 10  2  0  0  0  0
 10 16  1  0  0  0  0
 12 11  1  0  0  0  0
 13 12  2  0  0  0  0
 13 14  1  0  0  0  0
 15 13  1  0  0  0  0
 16 15  2  0  0  0  0
 17 18  1  0  0  0  0
M  END
> <Inchi_key>
VTMVHDZWSFQSQP-UHFFFAOYSA-N

> <Source>
Mulliner , Kotsampasakou

> <ID>
EK0157;HT0632

> <H_MFHB>
0

> <CAS>


> <Cholestasis>
0

> <Name>
dezocine

> <Class>
0

$$$$