

  -INDIGO-08031709442D

 26 28  0  0  0  0  0  0  0  0999 V2000
   -0.6892    2.5559    0.0000 Cl  0  0  0  0  0  0  0  0  0  0  0  0
    0.6074    3.3101    0.0000 C   0  0  0  0  0  0  0  0  0  0  0  0
    0.6027    4.8101    0.0000 Cl  0  0  0  0  0  0  0  0  0  0  0  0
    1.9089    2.5642    0.0000 C   0  0  0  0  0  0  0  0  0  0  0  0
    3.2055    3.3184    0.0000 C   0  0  0  0  0  0  0  0  0  0  0  0
    3.9512    4.6198    0.0000 C   0  0  0  0  0  0  0  0  0  0  0  0
    4.8607    5.8128    0.0000 C   0  0  0  0  0  0  0  0  0  0  0  0
    3.0344    5.8069    0.0000 C   0  0  0  0  0  0  0  0  0  0  0  0
    4.7055    3.3232    0.0000 C   0  0  0  0  0  0  0  0  0  0  0  0
    6.0069    2.5774    0.0000 C   0  0  0  0  0  0  0  0  0  0  0  0
    7.3036    3.3315    0.0000 O   0  0  0  0  0  0  0  0  0  0  0  0
    8.6050    2.5857    0.0000 C   0  0  0  0  0  0  0  0  0  0  0  0
    9.9016    3.3398    0.0000 C   0  0  0  0  0  0  0  0  0  0  0  0
   11.2030    2.5940    0.0000 C   0  0  0  0  0  0  0  0  0  0  0  0
   12.4997    3.3482    0.0000 C   0  0  0  0  0  0  0  0  0  0  0  0
   13.8011    2.6023    0.0000 O   0  0  0  0  0  0  0  0  0  0  0  0
   15.0977    3.3565    0.0000 C   0  0  0  0  0  0  0  0  0  0  0  0
   15.0930    4.8565    0.0000 C   0  0  0  0  0  0  0  0  0  0  0  0
   16.3896    5.6106    0.0000 C   0  0  0  0  0  0  0  0  0  0  0  0
   17.6910    4.8648    0.0000 C   0  0  0  0  0  0  0  0  0  0  0  0
   17.6958    3.3648    0.0000 C   0  0  0  0  0  0  0  0  0  0  0  0
   16.3992    2.6106    0.0000 C   0  0  0  0  0  0  0  0  0  0  0  0
   12.4949    4.8482    0.0000 C   0  0  0  0  0  0  0  0  0  0  0  0
   11.1935    5.5940    0.0000 C   0  0  0  0  0  0  0  0  0  0  0  0
    9.8969    4.8398    0.0000 C   0  0  0  0  0  0  0  0  0  0  0  0
    6.0117    1.0774    0.0000 O   0  0  0  0  0  0  0  0  0  0  0  0
  1  2  1  0  0  0  0
  2  3  1  0  0  0  0
  2  4  2  0  0  0  0
  4  5  1  0  0  0  0
  6  5  1  0  0  0  0
  5  9  1  0  0  0  0
  6  7  1  0  0  0  0
  6  8  1  0  0  0  0
  9  6  1  0  0  0  0
  9 10  1  0  0  0  0
 10 11  1  0  0  0  0
 10 26  2  0  0  0  0
 11 12  1  0  0  0  0
 12 13  1  0  0  0  0
 14 13  2  0  0  0  0
 13 25  1  0  0  0  0
 15 14  1  0  0  0  0
 15 16  1  0  0  0  0
 23 15  2  0  0  0  0
 16 17  1  0  0  0  0
 18 17  2  0  0  0  0
 17 22  1  0  0  0  0
 19 18  1  0  0  0  0
 20 19  2  0  0  0  0
 21 20  1  0  0  0  0
 22 21  2  0  0  0  0
 24 23  1  0  0  0  0
 25 24  2  0  0  0  0
M  END
> <Inchi_key>
RLLPVAHGXHCWKJ-UHFFFAOYSA-N

> <Source>
Kotsampasakou

> <ID>
EK0411

> <H_MFHB>


> <CAS>


> <Cholestasis>
0

> <Name>
permethrin

> <Class>
0


$$$$