

  -INDIGO-08031710012D

 22 24  0  0  0  0  0  0  0  0999 V2000
    3.9964    3.2560    0.0000 C   0  0  0  0  0  0  0  0  0  0  0  0
    3.6935    1.7870    0.0000 C   0  0  0  0  0  0  0  0  0  0  0  0
    4.8141    0.7899    0.0000 C   0  0  0  0  0  0  0  0  0  0  0  0
    6.2794    1.1105    0.0000 O   0  0  0  0  0  0  0  0  0  0  0  0
    7.0371   -0.1840    0.0000 C   0  0  0  0  0  0  0  0  0  0  0  0
    8.5061   -0.4872    0.0000 C   0  0  0  0  0  0  0  0  0  0  0  0
    8.9781   -1.9110    0.0000 C   0  0  0  0  0  0  0  0  0  0  0  0
    7.9812   -3.0317    0.0000 C   0  0  0  0  0  0  0  0  0  0  0  0
    6.5120   -2.7285    0.0000 C   0  0  0  0  0  0  0  0  0  0  0  0
    6.0400   -1.3047    0.0000 C   0  0  0  0  0  0  0  0  0  0  0  0
    4.6661   -0.7028    0.0000 C   0  0  0  0  0  0  0  0  0  0  0  0
    3.3717   -1.4605    0.0000 C   0  0  0  0  0  0  0  0  0  0  0  0
    3.3804   -2.9604    0.0000 O   0  0  0  0  0  0  0  0  0  0  0  0
    2.0681   -0.7182    0.0000 C   0  0  0  0  0  0  0  0  0  0  0  0
    2.0592    0.7818    0.0000 C   0  0  0  0  0  0  0  0  0  0  0  0
    0.7557    1.5240    0.0000 C   0  0  0  0  0  0  0  0  0  0  0  0
    0.7468    3.0240    0.0000 Br  0  0  0  0  0  0  0  0  0  0  0  0
   -0.5389    0.7663    0.0000 C   0  0  0  0  0  0  0  0  0  0  0  0
   -1.8423    1.5086    0.0000 O   0  0  0  0  0  0  0  0  0  0  0  0
   -0.5299   -0.7337    0.0000 C   0  0  0  0  0  0  0  0  0  0  0  0
   -1.8245   -1.4914    0.0000 Br  0  0  0  0  0  0  0  0  0  0  0  0
    0.7735   -1.4759    0.0000 C   0  0  0  0  0  0  0  0  0  0  0  0
  1  2  1  0  0  0  0
  2  3  1  0  0  0  0
  4  3  1  0  0  0  0
  3 11  2  0  0  0  0
  5  4  1  0  0  0  0
  6  5  2  0  0  0  0
  5 10  1  0  0  0  0
  7  6  1  0  0  0  0
  8  7  2  0  0  0  0
  9  8  1  0  0  0  0
 10  9  2  0  0  0  0
 11 10  1  0  0  0  0
 11 12  1  0  0  0  0
 12 13  2  0  0  0  0
 12 14  1  0  0  0  0
 15 14  2  0  0  0  0
 14 22  1  0  0  0  0
 16 15  1  0  0  0  0
 16 17  1  0  0  0  0
 18 16  2  0  0  0  0
 18 19  1  0  0  0  0
 20 18  1  0  0  0  0
 20 21  1  0  0  0  0
 22 20  2  0  0  0  0
M  END
> <Inchi_key>
WHQCHUCQKNIQEC-UHFFFAOYSA-N

> <Source>
Mulliner

> <ID>
HT0245

> <H_MFHB>
0

> <CAS>
3562-84-3

> <Cholestasis>


> <Name>
benzbromarone

> <Class>
0


$$$$