

  -INDIGO-08031710012D

 24 26  0  0  0  0  0  0  0  0999 V2000
    1.3329    4.9743    0.0000 C   0  0  0  0  0  0  0  0  0  0  0  0
    2.6318    4.2244    0.0000 O   0  0  0  0  0  0  0  0  0  0  0  0
    2.6318    2.7244    0.0000 C   0  0  0  0  0  0  0  0  0  0  0  0
    1.3329    1.9743    0.0000 C   0  0  0  0  0  0  0  0  0  0  0  0
    1.3329    0.4743    0.0000 C   0  0  0  0  0  0  0  0  0  0  0  0
    2.6318   -0.2756    0.0000 C   0  0  0  0  0  0  0  0  0  0  0  0
    2.6318   -1.7756    0.0000 O   0  0  0  0  0  0  0  0  0  0  0  0
    1.3329   -2.5257    0.0000 C   0  0  0  0  0  0  0  0  0  0  0  0
    3.9309    0.4743    0.0000 C   0  0  0  0  0  0  0  0  0  0  0  0
    5.2300   -0.2756    0.0000 C   0  0  0  0  0  0  0  0  0  0  0  0
    6.5289    0.4743    0.0000 C   0  0  0  0  0  0  0  0  0  0  0  0
    6.5289    1.9743    0.0000 C   0  0  0  0  0  0  0  0  0  0  0  0
    7.8280    2.7244    0.0000 N   0  0  0  0  0  0  0  0  0  0  0  0
    9.1271    1.9743    0.0000 C   0  0  0  0  0  0  0  0  0  0  0  0
   10.4260    2.7244    0.0000 N   0  0  0  0  0  0  0  0  0  0  0  0
   11.7253    1.9743    0.0000 C   0  0  0  0  0  0  0  0  0  0  0  0
   13.0242    2.7244    0.0000 N   0  0  0  0  0  0  0  0  0  0  0  0
   11.7253    0.4743    0.0000 N   0  0  0  0  0  0  0  0  0  0  0  0
   10.4260   -0.2756    0.0000 C   0  0  0  0  0  0  0  0  0  0  0  0
   10.4260   -1.7756    0.0000 N   0  0  0  0  0  0  0  0  0  0  0  0
    9.1271    0.4743    0.0000 C   0  0  0  0  0  0  0  0  0  0  0  0
    7.8280   -0.2756    0.0000 C   0  0  0  0  0  0  0  0  0  0  0  0
    7.8280   -1.7756    0.0000 C   0  0  0  0  0  0  0  0  0  0  0  0
    3.9309    1.9743    0.0000 C   0  0  0  0  0  0  0  0  0  0  0  0
  1  2  1  0  0  0  0
  2  3  1  0  0  0  0
  4  3  2  0  0  0  0
  3 24  1  0  0  0  0
  5  4  1  0  0  0  0
  6  5  2  0  0  0  0
  6  7  1  0  0  0  0
  9  6  1  0  0  0  0
  7  8  1  0  0  0  0
  9 10  1  0  0  0  0
 24  9  2  0  0  0  0
 10 11  1  0  0  0  0
 12 11  2  0  0  0  0
 11 22  1  0  0  0  0
 13 12  1  0  0  0  0
 14 13  2  0  0  0  0
 15 14  1  0  0  0  0
 14 21  1  0  0  0  0
 16 15  2  0  0  0  0
 16 17  1  0  0  0  0
 18 16  1  0  0  0  0
 19 18  2  0  0  0  0
 19 20  1  0  0  0  0
 21 19  1  0  0  0  0
 22 21  2  0  0  0  0
 22 23  1  0  0  0  0
M  END
> <Inchi_key>
VJXSSYDSOJBUAV-UHFFFAOYSA-N

> <Source>
Mulliner

> <ID>
HT1695

> <H_MFHB>
0

> <CAS>


> <Cholestasis>


> <Name>
piritrexim

> <Class>
0


$$$$