

  -INDIGO-08031710012D

 35 38  0  0  0  0  0  0  0  0999 V2000
    6.1773   -5.6416    0.0000 C   0  0  0  0  0  0  0  0  0  0  0  0
    6.0415   -4.1476    0.0000 C   0  0  0  0  0  0  0  0  0  0  0  0
    7.2674   -3.2833    0.0000 O   0  0  0  0  0  0  0  0  0  0  0  0
    7.1317   -1.7893    0.0000 C   0  0  0  0  0  0  0  0  0  0  0  0
    8.2605   -0.8015    0.0000 O   0  0  0  0  0  0  0  0  0  0  0  0
    7.6699    0.5772    0.0000 C   0  0  0  0  0  0  0  0  0  0  0  0
    8.4381    1.8657    0.0000 C   0  0  0  0  0  0  0  0  0  0  0  0
    7.7065    3.1750    0.0000 C   0  0  0  0  0  0  0  0  0  0  0  0
    8.4749    4.4633    0.0000 O   0  0  0  0  0  0  0  0  0  0  0  0
    7.7433    5.7729    0.0000 C   0  0  0  0  0  0  0  0  0  0  0  0
    8.5115    7.0612    0.0000 C   0  0  0  0  0  0  0  0  0  0  0  0
   10.0114    7.0399    0.0000 C   0  0  0  0  0  0  0  0  0  0  0  0
   10.7796    8.3282    0.0000 C   0  0  0  0  0  0  0  0  0  0  0  0
   10.0480    9.6378    0.0000 C   0  0  0  0  0  0  0  0  0  0  0  0
    8.5481    9.6590    0.0000 C   0  0  0  0  0  0  0  0  0  0  0  0
    7.7799    8.3707    0.0000 C   0  0  0  0  0  0  0  0  0  0  0  0
    9.9379    1.8445    0.0000 O   0  0  0  0  0  0  0  0  0  0  0  0
   10.6696    0.5349    0.0000 C   0  0  0  0  0  0  0  0  0  0  0  0
   12.1694    0.5137    0.0000 C   0  0  0  0  0  0  0  0  0  0  0  0
   12.9376    1.8020    0.0000 C   0  0  0  0  0  0  0  0  0  0  0  0
   14.4375    1.7807    0.0000 C   0  0  0  0  0  0  0  0  0  0  0  0
   15.1691    0.4714    0.0000 C   0  0  0  0  0  0  0  0  0  0  0  0
   14.4009   -0.8169    0.0000 C   0  0  0  0  0  0  0  0  0  0  0  0
   12.9010   -0.7959    0.0000 C   0  0  0  0  0  0  0  0  0  0  0  0
    6.1759    0.4415    0.0000 C   0  0  0  0  0  0  0  0  0  0  0  0
    5.1881    1.5704    0.0000 O   0  0  0  0  0  0  0  0  0  0  0  0
    3.7166    1.2792    0.0000 C   0  0  0  0  0  0  0  0  0  0  0  0
    2.7288    2.4081    0.0000 C   0  0  0  0  0  0  0  0  0  0  0  0
    1.2574    2.1169    0.0000 C   0  0  0  0  0  0  0  0  0  0  0  0
    0.2695    3.2455    0.0000 C   0  0  0  0  0  0  0  0  0  0  0  0
    0.7531    4.6655    0.0000 C   0  0  0  0  0  0  0  0  0  0  0  0
    2.2245    4.9566    0.0000 C   0  0  0  0  0  0  0  0  0  0  0  0
    3.2124    3.8278    0.0000 C   0  0  0  0  0  0  0  0  0  0  0  0
    5.8433   -1.0212    0.0000 C   0  0  0  0  0  0  0  0  0  0  0  0
    4.4646   -1.6119    0.0000 O   0  0  0  0  0  0  0  0  0  0  0  0
  1  2  1  0  0  0  0
  2  3  1  0  0  0  0
  3  4  1  0  0  0  0
  5  4  1  0  0  0  0
  4 34  1  0  0  0  0
  6  5  1  0  0  0  0
  6  7  1  0  0  0  0
 25  6  1  0  0  0  0
  7  8  1  0  0  0  0
  7 17  1  0  0  0  0
  8  9  1  0  0  0  0
  9 10  1  0  0  0  0
 10 11  1  0  0  0  0
 12 11  2  0  0  0  0
 11 16  1  0  0  0  0
 13 12  1  0  0  0  0
 14 13  2  0  0  0  0
 15 14  1  0  0  0  0
 16 15  2  0  0  0  0
 17 18  1  0  0  0  0
 18 19  1  0  0  0  0
 20 19  2  0  0  0  0
 19 24  1  0  0  0  0
 21 20  1  0  0  0  0
 22 21  2  0  0  0  0
 23 22  1  0  0  0  0
 24 23  2  0  0  0  0
 25 26  1  0  0  0  0
 34 25  1  0  0  0  0
 26 27  1  0  0  0  0
 27 28  1  0  0  0  0
 29 28  2  0  0  0  0
 28 33  1  0  0  0  0
 30 29  1  0  0  0  0
 31 30  2  0  0  0  0
 32 31  1  0  0  0  0
 33 32  2  0  0  0  0
 34 35  1  0  0  0  0
M  END
> <Inchi_key>
ULLNJSBQMBKOJH-UHFFFAOYSA-N

> <Source>
Mulliner

> <ID>
HT3869

> <H_MFHB>
0

> <CAS>
10310-32-4

> <Cholestasis>


> <Name>


> <Class>
0


$$$$