

  -INDIGO-08031710012D

 23 24  0  0  0  0  0  0  0  0999 V2000
    6.7219    1.8011    0.0000 O   0  0  0  0  0  0  0  0  0  0  0  0
    5.4228    1.0511    0.0000 N   0  0  0  0  0  0  0  0  0  0  0  0
    4.1238    1.8011    0.0000 O   0  0  0  0  0  0  0  0  0  0  0  0
    5.4228   -0.4489    0.0000 C   0  0  0  0  0  0  0  0  0  0  0  0
    6.7219   -1.1989    0.0000 C   0  0  0  0  0  0  0  0  0  0  0  0
    6.7219   -2.6989    0.0000 C   0  0  0  0  0  0  0  0  0  0  0  0
    5.4228   -3.4489    0.0000 C   0  0  0  0  0  0  0  0  0  0  0  0
    4.1238   -2.6989    0.0000 C   0  0  0  0  0  0  0  0  0  0  0  0
    4.1238   -1.1989    0.0000 C   0  0  0  0  0  0  0  0  0  0  0  0
    2.8249   -0.4489    0.0000 C   0  0  0  0  0  0  0  0  0  0  0  0
    2.8249    1.0511    0.0000 O   0  0  0  0  0  0  0  0  0  0  0  0
    1.5258   -1.1989    0.0000 C   0  0  0  0  0  0  0  0  0  0  0  0
    1.5258   -2.6989    0.0000 C   0  0  0  0  0  0  0  0  0  0  0  0
    2.8249   -3.4489    0.0000 O   0  0  0  0  0  0  0  0  0  0  0  0
    0.2268   -3.4489    0.0000 C   0  0  0  0  0  0  0  0  0  0  0  0
   -1.0723   -2.6989    0.0000 C   0  0  0  0  0  0  0  0  0  0  0  0
   -1.0723   -1.1989    0.0000 C   0  0  0  0  0  0  0  0  0  0  0  0
    0.2268   -0.4489    0.0000 C   0  0  0  0  0  0  0  0  0  0  0  0
    0.2268    1.0511    0.0000 O   0  0  0  0  0  0  0  0  0  0  0  0
    8.0209   -3.4489    0.0000 C   0  0  0  0  0  0  0  0  0  0  0  0
    8.7708   -2.1498    0.0000 F   0  0  0  0  0  0  0  0  0  0  0  0
    7.2709   -4.7479    0.0000 F   0  0  0  0  0  0  0  0  0  0  0  0
    9.3200   -4.1989    0.0000 F   0  0  0  0  0  0  0  0  0  0  0  0
  1  2  1  0  0  0  0
  2  3  2  0  0  0  0
  2  4  1  0  0  0  0
  5  4  2  0  0  0  0
  4  9  1  0  0  0  0
  6  5  1  0  0  0  0
  7  6  2  0  0  0  0
  6 20  1  0  0  0  0
  8  7  1  0  0  0  0
  9  8  2  0  0  0  0
  9 10  1  0  0  0  0
 10 11  2  0  0  0  0
 10 12  1  0  0  0  0
 13 12  1  0  0  0  0
 12 18  1  0  0  0  0
 13 14  2  0  0  0  0
 15 13  1  0  0  0  0
 16 15  1  0  0  0  0
 17 16  1  0  0  0  0
 18 17  1  0  0  0  0
 18 19  2  0  0  0  0
 20 21  1  0  0  0  0
 20 22  1  0  0  0  0
 20 23  1  0  0  0  0
M  CHG  2   1  -1   2   1
M  END
> <Inchi_key>
OUBCNLGXQFSTLU-UHFFFAOYSA-N

> <Source>
Mulliner

> <ID>
HT1501

> <H_MFHB>
0

> <CAS>


> <Cholestasis>


> <Name>
nitisinone

> <Class>
0


$$$$