
  -INDIGO-08031710012D

 22 26  0  0  0  0  0  0  0  0999 V2000
    0.9015   -1.7404    0.0000 C   0  0  0  0  0  0  0  0  0  0  0  0
    2.2774   -1.1431    0.0000 N   0  0  0  0  0  0  0  0  0  0  0  0
    3.7163   -1.1264    0.0000 C   0  0  0  0  0  0  0  0  0  0  0  0
    4.8989    0.6716    0.0000 C   0  0  0  0  0  0  0  0  0  0  0  0
    4.4991    2.0726    0.0000 C   0  0  0  0  0  0  0  0  0  0  0  0
    4.4875    3.4990    0.0000 C   0  0  0  0  0  0  0  0  0  0  0  0
    6.2435    3.7355    0.0000 O   0  0  0  0  0  0  0  0  0  0  0  0
    6.9828    2.1031    0.0000 C   0  0  0  0  0  0  0  0  0  0  0  0
    8.2326    1.3968    0.0000 C   0  0  0  0  0  0  0  0  0  0  0  0
    9.5235    2.1607    0.0000 O   0  0  0  0  0  0  0  0  0  0  0  0
    8.2492   -0.0355    0.0000 C   0  0  0  0  0  0  0  0  0  0  0  0
    7.0149   -0.7616    0.0000 C   0  0  0  0  0  0  0  0  0  0  0  0
    5.7725   -0.0633    0.0000 C   0  0  0  0  0  0  0  0  0  0  0  0
    4.5324   -0.7959    0.0000 C   0  0  0  0  0  0  0  0  0  0  0  0
    3.2766   -0.0988    0.0000 C   0  0  0  0  0  0  0  0  0  0  0  0
    3.2623    1.3451    0.0000 C   0  0  0  0  0  0  0  0  0  0  0  0
    1.9748    0.5756    0.0000 O   0  0  0  0  0  0  0  0  0  0  0  0
    2.0144    2.0435    0.0000 C   0  0  0  0  0  0  0  0  0  0  0  0
    2.0053    3.4798    0.0000 C   0  0  0  0  0  0  0  0  0  0  0  0
    3.2421    4.2074    0.0000 C   0  0  0  0  0  0  0  0  0  0  0  0
    3.2312    5.7073    0.0000 O   0  0  0  0  0  0  0  0  0  0  0  0
    5.7559    1.3688    0.0000 C   0  0  0  0  0  0  0  0  0  0  0  0
  1  2  1  0  0  0  0
  3  2  1  0  0  0  0
  2 15  1  0  0  0  0
  4  3  1  0  0  0  0
  5  4  1  0  0  0  0
  5  6  1  0  0  0  0
  5 16  1  0  0  0  0
 22  5  1  0  0  0  0
  6  7  1  0  0  0  0
 20  6  1  0  0  0  0
  7  8  1  0  0  0  0
  9  8  1  0  0  0  0
  8 22  2  0  0  0  0
  9 10  1  0  0  0  0
 11  9  2  0  0  0  0
 12 11  1  0  0  0  0
 13 12  2  0  0  0  0
 13 14  1  0  0  0  0
 22 13  1  0  0  0  0
 14 15  1  0  0  0  0
 15 16  1  0  0  0  0
 16 17  1  0  0  0  0
 16 18  1  0  0  0  0
 18 19  1  0  0  0  0
 19 20  1  0  0  0  0
 20 21  2  0  0  0  0
M  END
> <Inchi_key>
UQCNKQCJZOAFTQ-UHFFFAOYSA-N

> <Source>
Mulliner

> <ID>
HT1570

> <H_MFHB>
0

> <CAS>


> <Cholestasis>


> <Name>
oxymorphone hydrochloride;oxymorphone

> <Class>
0

$$$$