

  -INDIGO-08031710012D

 24 28  0  0  0  0  0  0  0  0999 V2000
   -0.0283   -3.0952    0.0000 O   0  0  0  0  0  0  0  0  0  0  0  0
    1.4714   -3.1226    0.0000 C   0  0  0  0  0  0  0  0  0  0  0  0
    2.1637   -4.3765    0.0000 C   0  0  0  0  0  0  0  0  0  0  0  0
    3.5957   -4.3990    0.0000 C   0  0  0  0  0  0  0  0  0  0  0  0
    4.3317   -3.1777    0.0000 C   0  0  0  0  0  0  0  0  0  0  0  0
    5.7716   -3.2028    0.0000 C   0  0  0  0  0  0  0  0  0  0  0  0
    6.5200   -1.9774    0.0000 C   0  0  0  0  0  0  0  0  0  0  0  0
    7.9036   -2.3935    0.0000 N   0  0  0  0  0  0  0  0  0  0  0  0
    9.3953   -2.2341    0.0000 C   0  0  0  0  0  0  0  0  0  0  0  0
   10.2791   -3.4460    0.0000 C   0  0  0  0  0  0  0  0  0  0  0  0
   11.7705   -3.2866    0.0000 C   0  0  0  0  0  0  0  0  0  0  0  0
    6.6439   -3.0890    0.0000 C   0  0  0  0  0  0  0  0  0  0  0  0
    4.7281   -2.1087    0.0000 C   0  0  0  0  0  0  0  0  0  0  0  0
    4.3853   -0.6920    0.0000 C   0  0  0  0  0  0  0  0  0  0  0  0
    3.6916    0.5543    0.0000 C   0  0  0  0  0  0  0  0  0  0  0  0
    2.0486   -0.1070    0.0000 O   0  0  0  0  0  0  0  0  0  0  0  0
    2.2110   -1.8914    0.0000 C   0  0  0  0  0  0  0  0  0  0  0  0
    3.6394   -1.9238    0.0000 C   0  0  0  0  0  0  0  0  0  0  0  0
    4.4251    1.7849    0.0000 C   0  0  0  0  0  0  0  0  0  0  0  0
    3.6943    3.0949    0.0000 O   0  0  0  0  0  0  0  0  0  0  0  0
    5.8600    1.7625    0.0000 C   0  0  0  0  0  0  0  0  0  0  0  0
    6.5607    0.5087    0.0000 C   0  0  0  0  0  0  0  0  0  0  0  0
    5.8201   -0.7145    0.0000 C   0  0  0  0  0  0  0  0  0  0  0  0
    7.3198   -0.7485    0.0000 O   0  0  0  0  0  0  0  0  0  0  0  0
  1  2  1  0  0  0  0
  3  2  2  0  0  0  0
  2 17  1  0  0  0  0
  4  3  1  0  0  0  0
  5  4  2  0  0  0  0
  6  5  1  0  0  0  0
  5 18  1  0  0  0  0
  7  6  1  0  0  0  0
  7  8  1  0  0  0  0
 23  7  1  0  0  0  0
  8  9  1  0  0  0  0
  8 12  1  0  0  0  0
  9 10  1  0  0  0  0
 10 11  2  0  0  0  0
 12 13  1  0  0  0  0
 13 14  1  0  0  0  0
 15 14  1  0  0  0  0
 18 14  1  0  0  0  0
 14 23  1  0  0  0  0
 15 16  1  0  0  0  0
 19 15  1  0  0  0  0
 16 17  1  0  0  0  0
 17 18  2  0  0  0  0
 19 20  2  0  0  0  0
 21 19  1  0  0  0  0
 22 21  1  0  0  0  0
 23 22  1  0  0  0  0
 23 24  1  0  0  0  0
M  END
> <Inchi_key>
UZHSEJADLWPNLE-UHFFFAOYSA-N

> <Source>
Mulliner , Kotsampasakou

> <ID>
EK0372;HT1459

> <H_MFHB>
0

> <CAS>


> <Cholestasis>
0

> <Name>
naloxone hydrochloride;naloxone

> <Class>
0


$$$$