

  -INDIGO-08031710012D

 40 42  0  0  0  0  0  0  0  0999 V2000
    1.0661    5.1915    0.0000 C   0  0  0  0  0  0  0  0  0  0  0  0
    2.0688    4.0757    0.0000 N   0  0  0  0  0  0  0  0  0  0  0  0
    1.6035    2.6495    0.0000 C   0  0  0  0  0  0  0  0  0  0  0  0
    0.1361    2.3393    0.0000 C   0  0  0  0  0  0  0  0  0  0  0  0
   -0.8666    3.4551    0.0000 O   0  0  0  0  0  0  0  0  0  0  0  0
   -0.3292    0.9132    0.0000 C   0  0  0  0  0  0  0  0  0  0  0  0
   -1.7966    0.6030    0.0000 O   0  0  0  0  0  0  0  0  0  0  0  0
    0.6734   -0.2026    0.0000 C   0  0  0  0  0  0  0  0  0  0  0  0
    0.2084   -1.6286    0.0000 C   0  0  0  0  0  0  0  0  0  0  0  0
   -1.2592   -1.9389    0.0000 O   0  0  0  0  0  0  0  0  0  0  0  0
    2.1411    0.1078    0.0000 O   0  0  0  0  0  0  0  0  0  0  0  0
    2.6061    1.5337    0.0000 C   0  0  0  0  0  0  0  0  0  0  0  0
    4.0735    1.8441    0.0000 O   0  0  0  0  0  0  0  0  0  0  0  0
    5.0761    0.7283    0.0000 C   0  0  0  0  0  0  0  0  0  0  0  0
    6.5682    0.8835    0.0000 C   0  0  0  0  0  0  0  0  0  0  0  0
    7.3194    2.1817    0.0000 O   0  0  0  0  0  0  0  0  0  0  0  0
    8.8196    2.1799    0.0000 C   0  0  0  0  0  0  0  0  0  0  0  0
    9.5682    0.8802    0.0000 C   0  0  0  0  0  0  0  0  0  0  0  0
    8.8167   -0.4180    0.0000 O   0  0  0  0  0  0  0  0  0  0  0  0
   11.0681    0.8786    0.0000 C   0  0  0  0  0  0  0  0  0  0  0  0
   11.8167   -0.4213    0.0000 O   0  0  0  0  0  0  0  0  0  0  0  0
   11.8196    2.1768    0.0000 C   0  0  0  0  0  0  0  0  0  0  0  0
   13.3196    2.1750    0.0000 N   0  0  0  0  0  0  0  0  0  0  0  0
   14.0681    0.8753    0.0000 C   0  0  0  0  0  0  0  0  0  0  0  0
   13.3167   -0.4230    0.0000 N   0  0  0  0  0  0  0  0  0  0  0  0
   15.5681    0.8737    0.0000 N   0  0  0  0  0  0  0  0  0  0  0  0
   11.0708    3.4765    0.0000 C   0  0  0  0  0  0  0  0  0  0  0  0
   11.8222    4.7748    0.0000 O   0  0  0  0  0  0  0  0  0  0  0  0
    9.5708    3.4782    0.0000 C   0  0  0  0  0  0  0  0  0  0  0  0
    8.8223    4.7781    0.0000 N   0  0  0  0  0  0  0  0  0  0  0  0
    9.5737    6.0763    0.0000 C   0  0  0  0  0  0  0  0  0  0  0  0
    8.8252    7.3762    0.0000 N   0  0  0  0  0  0  0  0  0  0  0  0
   11.0737    6.0747    0.0000 N   0  0  0  0  0  0  0  0  0  0  0  0
    7.1768   -0.4876    0.0000 O   0  0  0  0  0  0  0  0  0  0  0  0
    6.0608   -1.4901    0.0000 C   0  0  0  0  0  0  0  0  0  0  0  0
    6.2160   -2.9820    0.0000 C   0  0  0  0  0  0  0  0  0  0  0  0
    4.7627   -0.7385    0.0000 C   0  0  0  0  0  0  0  0  0  0  0  0
    3.2757   -0.5412    0.0000 O   0  0  0  0  0  0  0  0  0  0  0  0
    3.9116   -1.9739    0.0000 C   0  0  0  0  0  0  0  0  0  0  0  0
    4.5560   -3.3285    0.0000 O   0  0  0  0  0  0  0  0  0  0  0  0
  1  2  1  0  0  0  0
  2  3  1  0  0  0  0
  4  3  1  0  0  0  0
  3 12  1  0  0  0  0
  4  5  1  0  0  0  0
  6  4  1  0  0  0  0
  6  7  1  0  0  0  0
  8  6  1  0  0  0  0
  8  9  1  0  0  0  0
 11  8  1  0  0  0  0
  9 10  1  0  0  0  0
 12 11  1  0  0  0  0
 12 13  1  0  0  0  0
 13 14  1  0  0  0  0
 15 14  1  0  0  0  0
 14 37  1  0  0  0  0
 15 16  1  0  0  0  0
 34 15  1  0  0  0  0
 16 17  1  0  0  0  0
 18 17  1  0  0  0  0
 17 29  1  0  0  0  0
 18 19  1  0  0  0  0
 20 18  1  0  0  0  0
 20 21  1  0  0  0  0
 22 20  1  0  0  0  0
 22 23  1  0  0  0  0
 27 22  1  0  0  0  0
 23 24  2  0  0  0  0
 24 25  1  0  0  0  0
 24 26  1  0  0  0  0
 27 28  1  0  0  0  0
 29 27  1  0  0  0  0
 29 30  1  0  0  0  0
 30 31  2  0  0  0  0
 31 32  1  0  0  0  0
 31 33  1  0  0  0  0
 35 34  1  0  0  0  0
 35 36  1  0  0  0  0
 37 35  1  0  0  0  0
 37 38  1  0  0  0  0
 37 39  1  0  0  0  0
 39 40  2  0  0  0  0
M  END
> <Inchi_key>
UCSJYZPVAKXKNQ-UHFFFAOYSA-N

> <Source>
Mulliner , Kotsampasakou

> <ID>
EK0488;HT1918

> <H_MFHB>
0

> <CAS>


> <Cholestasis>
0

> <Name>
streptomycin sulfate;streptomycin

> <Class>
0


$$$$