
  -INDIGO-08031710012D

 30 34  0  0  0  0  0  0  0  0999 V2000
   -0.0006    2.9920    0.0000 C   0  0  0  0  0  0  0  0  0  0  0  0
    1.3409    2.3206    0.0000 C   0  0  0  0  0  0  0  0  0  0  0  0
    0.1260    1.4408    0.0000 C   0  0  0  0  0  0  0  0  0  0  0  0
    2.0983    3.6152    0.0000 O   0  0  0  0  0  0  0  0  0  0  0  0
    3.5638    3.2947    0.0000 C   0  0  0  0  0  0  0  0  0  0  0  0
    4.9377    3.8967    0.0000 C   0  0  0  0  0  0  0  0  0  0  0  0
    5.9348    2.7761    0.0000 C   0  0  0  0  0  0  0  0  0  0  0  0
    7.4347    2.7672    0.0000 C   0  0  0  0  0  0  0  0  0  0  0  0
    8.1925    4.0618    0.0000 C   0  0  0  0  0  0  0  0  0  0  0  0
    9.6923    4.0530    0.0000 C   0  0  0  0  0  0  0  0  0  0  0  0
   10.4346    2.7495    0.0000 C   0  0  0  0  0  0  0  0  0  0  0  0
   11.9347    2.7407    0.0000 C   0  0  0  0  0  0  0  0  0  0  0  0
   12.6769    1.4372    0.0000 C   0  0  0  0  0  0  0  0  0  0  0  0
   14.1770    1.4284    0.0000 O   0  0  0  0  0  0  0  0  0  0  0  0
   11.9193    0.1426    0.0000 C   0  0  0  0  0  0  0  0  0  0  0  0
   10.4195    0.1515    0.0000 C   0  0  0  0  0  0  0  0  0  0  0  0
    9.6770    1.4549    0.0000 C   0  0  0  0  0  0  0  0  0  0  0  0
    8.9194    0.1603    0.0000 C   0  0  0  0  0  0  0  0  0  0  0  0
    8.1771    1.4638    0.0000 C   0  0  0  0  0  0  0  0  0  0  0  0
    7.4193    0.1692    0.0000 C   0  0  0  0  0  0  0  0  0  0  0  0
    8.1618   -1.1342    0.0000 O   0  0  0  0  0  0  0  0  0  0  0  0
    5.9194    0.1780    0.0000 C   0  0  0  0  0  0  0  0  0  0  0  0
    5.1772    1.4815    0.0000 C   0  0  0  0  0  0  0  0  0  0  0  0
    4.5351    0.1258    0.0000 C   0  0  0  0  0  0  0  0  0  0  0  0
    3.7117    1.8020    0.0000 C   0  0  0  0  0  0  0  0  0  0  0  0
    2.3380    1.2000    0.0000 O   0  0  0  0  0  0  0  0  0  0  0  0
    3.3150    0.3554    0.0000 C   0  0  0  0  0  0  0  0  0  0  0  0
    4.3694   -0.7115    0.0000 O   0  0  0  0  0  0  0  0  0  0  0  0
    1.8638   -0.0242    0.0000 C   0  0  0  0  0  0  0  0  0  0  0  0
    1.4670   -1.4708    0.0000 O   0  0  0  0  0  0  0  0  0  0  0  0
  1  2  1  0  0  0  0
  2  3  1  0  0  0  0
  4  2  1  0  0  0  0
  2 26  1  0  0  0  0
  5  4  1  0  0  0  0
  6  5  1  0  0  0  0
  5 25  1  0  0  0  0
  7  6  1  0  0  0  0
  8  7  1  0  0  0  0
  7 23  1  0  0  0  0
  9  8  1  0  0  0  0
  8 19  1  0  0  0  0
 10  9  1  0  0  0  0
 11 10  1  0  0  0  0
 12 11  2  0  0  0  0
 11 17  1  0  0  0  0
 13 12  1  0  0  0  0
 13 14  2  0  0  0  0
 15 13  1  0  0  0  0
 16 15  2  0  0  0  0
 17 16  1  0  0  0  0
 17 18  1  0  0  0  0
 19 17  1  0  0  0  0
 20 19  1  0  0  0  0
 20 21  1  0  0  0  0
 22 20  1  0  0  0  0
 23 22  1  0  0  0  0
 23 24  1  0  0  0  0
 25 23  1  0  0  0  0
 26 25  1  0  0  0  0
 25 27  1  0  0  0  0
 27 28  2  0  0  0  0
 27 29  1  0  0  0  0
 29 30  1  0  0  0  0
M  END
> <Inchi_key>
WBGKWQHBNHJJPZ-UHFFFAOYSA-N

> <Source>
Mulliner , Kotsampasakou

> <ID>
EK0152;HT0616

> <H_MFHB>
0

> <CAS>


> <Cholestasis>
0

> <Name>
desonide;apolar

> <Class>
0

$$$$