
  -INDIGO-08031710012D

 21 23  0  0  0  0  0  0  0  0999 V2000
    1.3114    4.8940    0.0000 C   0  0  0  0  0  0  0  0  0  0  0  0
    2.6105    4.1440    0.0000 C   0  0  0  0  0  0  0  0  0  0  0  0
    2.6105    2.6440    0.0000 C   0  0  0  0  0  0  0  0  0  0  0  0
    3.9094    1.8940    0.0000 C   0  0  0  0  0  0  0  0  0  0  0  0
    3.9094    0.3940    0.0000 C   0  0  0  0  0  0  0  0  0  0  0  0
    2.6105   -0.3560    0.0000 O   0  0  0  0  0  0  0  0  0  0  0  0
    5.2084   -0.3560    0.0000 O   0  0  0  0  0  0  0  0  0  0  0  0
    6.5075    0.3940    0.0000 C   0  0  0  0  0  0  0  0  0  0  0  0
    7.8065   -0.3560    0.0000 C   0  0  0  0  0  0  0  0  0  0  0  0
    9.1056    0.3940    0.0000 C   0  0  0  0  0  0  0  0  0  0  0  0
    9.1056    1.8940    0.0000 C   0  0  0  0  0  0  0  0  0  0  0  0
    7.8065    2.6440    0.0000 C   0  0  0  0  0  0  0  0  0  0  0  0
    6.5075    1.8940    0.0000 C   0  0  0  0  0  0  0  0  0  0  0  0
    5.2084    2.6440    0.0000 C   0  0  0  0  0  0  0  0  0  0  0  0
    5.2084    4.1440    0.0000 O   0  0  0  0  0  0  0  0  0  0  0  0
    1.3114    1.8940    0.0000 C   0  0  0  0  0  0  0  0  0  0  0  0
    1.3114    0.3940    0.0000 C   0  0  0  0  0  0  0  0  0  0  0  0
    0.0124   -0.3560    0.0000 C   0  0  0  0  0  0  0  0  0  0  0  0
   -1.2867    0.3940    0.0000 C   0  0  0  0  0  0  0  0  0  0  0  0
   -1.2867    1.8940    0.0000 C   0  0  0  0  0  0  0  0  0  0  0  0
    0.0124    2.6440    0.0000 C   0  0  0  0  0  0  0  0  0  0  0  0
  1  2  1  0  0  0  0
  2  3  1  0  0  0  0
  3  4  1  0  0  0  0
  3 16  1  0  0  0  0
  5  4  2  0  0  0  0
  4 14  1  0  0  0  0
  5  6  1  0  0  0  0
  7  5  1  0  0  0  0
  8  7  1  0  0  0  0
  9  8  2  0  0  0  0
  8 13  1  0  0  0  0
 10  9  1  0  0  0  0
 11 10  2  0  0  0  0
 12 11  1  0  0  0  0
 13 12  2  0  0  0  0
 14 13  1  0  0  0  0
 14 15  2  0  0  0  0
 17 16  2  0  0  0  0
 16 21  1  0  0  0  0
 18 17  1  0  0  0  0
 19 18  2  0  0  0  0
 20 19  1  0  0  0  0
 21 20  2  0  0  0  0
M  END
> <Inchi_key>
QNDUUBVQYBBRBW-UHFFFAOYSA-N

> <Source>
Mulliner

> <ID>
HT1656

> <H_MFHB>
0

> <CAS>


> <Cholestasis>


> <Name>
phenprocoumon

> <Class>
0

$$$$