

  -INDIGO-08031710012D

 25 27  0  0  0  0  0  0  0  0999 V2000
   11.4300    5.1442    0.0000 C   0  0  0  0  0  0  0  0  0  0  0  0
   10.6800    6.4433    0.0000 O   0  0  0  0  0  0  0  0  0  0  0  0
    9.1799    6.4433    0.0000 C   0  0  0  0  0  0  0  0  0  0  0  0
    8.4300    5.1442    0.0000 C   0  0  0  0  0  0  0  0  0  0  0  0
    6.9301    5.1442    0.0000 C   0  0  0  0  0  0  0  0  0  0  0  0
    6.1801    6.4433    0.0000 C   0  0  0  0  0  0  0  0  0  0  0  0
    4.6800    6.4433    0.0000 C   0  0  0  0  0  0  0  0  0  0  0  0
    3.9300    5.1442    0.0000 C   0  0  0  0  0  0  0  0  0  0  0  0
    4.6800    3.8452    0.0000 N   0  0  0  0  0  0  0  0  0  0  0  0
    3.9300    2.5461    0.0000 C   0  0  0  0  0  0  0  0  0  0  0  0
    2.4299    2.5461    0.0000 C   0  0  0  0  0  0  0  0  0  0  0  0
    1.6799    3.8452    0.0000 C   0  0  0  0  0  0  0  0  0  0  0  0
    0.1800    3.8452    0.0000 C   0  0  0  0  0  0  0  0  0  0  0  0
   -0.5699    5.1442    0.0000 C   0  0  0  0  0  0  0  0  0  0  0  0
   -2.0700    5.1442    0.0000 O   0  0  0  0  0  0  0  0  0  0  0  0
   -2.8200    3.8452    0.0000 C   0  0  0  0  0  0  0  0  0  0  0  0
    0.1800    6.4433    0.0000 C   0  0  0  0  0  0  0  0  0  0  0  0
   -0.5699    7.7424    0.0000 O   0  0  0  0  0  0  0  0  0  0  0  0
    0.1800    9.0413    0.0000 C   0  0  0  0  0  0  0  0  0  0  0  0
    1.6799    6.4433    0.0000 C   0  0  0  0  0  0  0  0  0  0  0  0
    2.4299    5.1442    0.0000 C   0  0  0  0  0  0  0  0  0  0  0  0
    6.9301    7.7424    0.0000 C   0  0  0  0  0  0  0  0  0  0  0  0
    8.4300    7.7424    0.0000 C   0  0  0  0  0  0  0  0  0  0  0  0
    9.1799    9.0413    0.0000 O   0  0  0  0  0  0  0  0  0  0  0  0
    8.4300   10.3403    0.0000 C   0  0  0  0  0  0  0  0  0  0  0  0
  1  2  1  0  0  0  0
  2  3  1  0  0  0  0
  4  3  2  0  0  0  0
  3 23  1  0  0  0  0
  5  4  1  0  0  0  0
  6  5  2  0  0  0  0
  6  7  1  0  0  0  0
 22  6  1  0  0  0  0
  7  8  1  0  0  0  0
  9  8  2  0  0  0  0
  8 21  1  0  0  0  0
 10  9  1  0  0  0  0
 11 10  2  0  0  0  0
 12 11  1  0  0  0  0
 13 12  1  0  0  0  0
 12 21  2  0  0  0  0
 14 13  2  0  0  0  0
 14 15  1  0  0  0  0
 17 14  1  0  0  0  0
 15 16  1  0  0  0  0
 17 18  1  0  0  0  0
 20 17  2  0  0  0  0
 18 19  1  0  0  0  0
 21 20  1  0  0  0  0
 23 22  2  0  0  0  0
 23 24  1  0  0  0  0
 24 25  1  0  0  0  0
M  END
> <Inchi_key>
XQYZDYMELSJDRZ-UHFFFAOYSA-N

> <Source>
Mulliner

> <ID>
HT1587

> <H_MFHB>
0

> <CAS>


> <Cholestasis>


> <Name>
papaverine hydrochloride;papaverine

> <Class>
0


$$$$