
  -INDIGO-08031710012D

 25 25  0  0  0  0  0  0  0  0999 V2000
   18.9393    0.9925    0.0000 C   0  0  0  0  0  0  0  0  0  0  0  0
   17.4474    0.8358    0.0000 C   0  0  0  0  0  0  0  0  0  0  0  0
   16.5659    2.0493    0.0000 C   0  0  0  0  0  0  0  0  0  0  0  0
   15.0740    1.8926    0.0000 C   0  0  0  0  0  0  0  0  0  0  0  0
   14.1924    3.1059    0.0000 C   0  0  0  0  0  0  0  0  0  0  0  0
   12.7006    2.9492    0.0000 C   0  0  0  0  0  0  0  0  0  0  0  0
   12.0905    1.5789    0.0000 O   0  0  0  0  0  0  0  0  0  0  0  0
   11.8190    4.1629    0.0000 C   0  0  0  0  0  0  0  0  0  0  0  0
   10.3271    4.0060    0.0000 C   0  0  0  0  0  0  0  0  0  0  0  0
    9.4455    5.2195    0.0000 C   0  0  0  0  0  0  0  0  0  0  0  0
    9.9089    6.6461    0.0000 C   0  0  0  0  0  0  0  0  0  0  0  0
   11.3354    7.1097    0.0000 O   0  0  0  0  0  0  0  0  0  0  0  0
    8.6954    7.5278    0.0000 C   0  0  0  0  0  0  0  0  0  0  0  0
    7.4818    6.6461    0.0000 C   0  0  0  0  0  0  0  0  0  0  0  0
    6.0553    7.1097    0.0000 O   0  0  0  0  0  0  0  0  0  0  0  0
    7.9455    5.2195    0.0000 C   0  0  0  0  0  0  0  0  0  0  0  0
    7.0636    4.0060    0.0000 C   0  0  0  0  0  0  0  0  0  0  0  0
    5.5720    4.1629    0.0000 C   0  0  0  0  0  0  0  0  0  0  0  0
    4.6904    2.9492    0.0000 C   0  0  0  0  0  0  0  0  0  0  0  0
    5.3004    1.5789    0.0000 C   0  0  0  0  0  0  0  0  0  0  0  0
    4.4186    0.3654    0.0000 C   0  0  0  0  0  0  0  0  0  0  0  0
    5.0288   -1.0048    0.0000 C   0  0  0  0  0  0  0  0  0  0  0  0
    4.1470   -2.2184    0.0000 C   0  0  0  0  0  0  0  0  0  0  0  0
    2.6554   -2.0616    0.0000 O   0  0  0  0  0  0  0  0  0  0  0  0
    4.7573   -3.5888    0.0000 O   0  0  0  0  0  0  0  0  0  0  0  0
  1  2  1  0  0  0  0
  2  3  1  0  0  0  0
  3  4  1  0  0  0  0
  4  5  1  0  0  0  0
  5  6  1  0  0  0  0
  6  7  1  0  0  0  0
  6  8  1  0  0  0  0
  8  9  2  0  0  0  0
  9 10  1  0  0  0  0
 11 10  1  0  0  0  0
 10 16  1  0  0  0  0
 11 12  1  0  0  0  0
 13 11  1  0  0  0  0
 14 13  1  0  0  0  0
 14 15  2  0  0  0  0
 16 14  1  0  0  0  0
 16 17  1  0  0  0  0
 17 18  1  0  0  0  0
 18 19  2  0  0  0  0
 19 20  1  0  0  0  0
 20 21  1  0  0  0  0
 21 22  1  0  0  0  0
 22 23  1  0  0  0  0
 23 24  2  0  0  0  0
 23 25  1  0  0  0  0
M  END
> <Inchi_key>
XEYBRNLFEZDVAW-ZQDYKODVSA-N

> <Source>
Mulliner , Kotsampasakou

> <ID>
EK0454;HT0682

> <H_MFHB>
0

> <CAS>
363-24-6

> <Cholestasis>
0

> <Name>
dinoprostone;prostaglandin e2

> <Class>
0

$$$$