
  -INDIGO-08031710012D

 34 37  0  0  0  0  0  0  0  0999 V2000
    2.3494    4.0693    0.0000 C   0  0  0  0  0  0  0  0  0  0  0  0
    3.0995    2.7703    0.0000 N   0  0  0  0  0  0  0  0  0  0  0  0
    2.3494    1.4712    0.0000 C   0  0  0  0  0  0  0  0  0  0  0  0
    4.5994    2.7703    0.0000 C   0  0  0  0  0  0  0  0  0  0  0  0
    5.3494    1.4712    0.0000 C   0  0  0  0  0  0  0  0  0  0  0  0
    6.8493    1.4712    0.0000 C   0  0  0  0  0  0  0  0  0  0  0  0
    7.5994    0.1722    0.0000 C   0  0  0  0  0  0  0  0  0  0  0  0
    9.0993    0.1722    0.0000 O   0  0  0  0  0  0  0  0  0  0  0  0
    6.8493   -1.1269    0.0000 N   0  0  0  0  0  0  0  0  0  0  0  0
    7.5994   -2.4259    0.0000 C   0  0  0  0  0  0  0  0  0  0  0  0
    9.0993   -2.4259    0.0000 C   0  0  0  0  0  0  0  0  0  0  0  0
    9.8494   -3.7248    0.0000 C   0  0  0  0  0  0  0  0  0  0  0  0
   11.3495   -3.7248    0.0000 C   0  0  0  0  0  0  0  0  0  0  0  0
   12.0993   -2.4259    0.0000 N   0  0  0  0  0  0  0  0  0  0  0  0
   13.5995   -2.4259    0.0000 C   0  0  0  0  0  0  0  0  0  0  0  0
   14.3493   -3.7248    0.0000 C   0  0  0  0  0  0  0  0  0  0  0  0
   15.8494   -3.7248    0.0000 C   0  0  0  0  0  0  0  0  0  0  0  0
   16.5995   -2.4259    0.0000 C   0  0  0  0  0  0  0  0  0  0  0  0
   18.0994   -2.4259    0.0000 F   0  0  0  0  0  0  0  0  0  0  0  0
   15.8494   -1.1269    0.0000 C   0  0  0  0  0  0  0  0  0  0  0  0
   16.5995    0.1722    0.0000 Cl  0  0  0  0  0  0  0  0  0  0  0  0
   14.3493   -1.1269    0.0000 C   0  0  0  0  0  0  0  0  0  0  0  0
   12.0993   -5.0240    0.0000 N   0  0  0  0  0  0  0  0  0  0  0  0
   11.3495   -6.3229    0.0000 C   0  0  0  0  0  0  0  0  0  0  0  0
    9.8494   -6.3229    0.0000 N   0  0  0  0  0  0  0  0  0  0  0  0
    9.0993   -5.0240    0.0000 C   0  0  0  0  0  0  0  0  0  0  0  0
    7.5994   -5.0240    0.0000 C   0  0  0  0  0  0  0  0  0  0  0  0
    6.8493   -3.7248    0.0000 C   0  0  0  0  0  0  0  0  0  0  0  0
    5.3494   -3.7248    0.0000 O   0  0  0  0  0  0  0  0  0  0  0  0
    4.5994   -5.0240    0.0000 C   0  0  0  0  0  0  0  0  0  0  0  0
    5.2096   -6.3943    0.0000 C   0  0  0  0  0  0  0  0  0  0  0  0
    4.0949   -7.3980    0.0000 C   0  0  0  0  0  0  0  0  0  0  0  0
    2.7957   -6.6480    0.0000 O   0  0  0  0  0  0  0  0  0  0  0  0
    3.1076   -5.1808    0.0000 C   0  0  0  0  0  0  0  0  0  0  0  0
  1  2  1  0  0  0  0
  2  3  1  0  0  0  0
  2  4  1  0  0  0  0
  4  5  1  0  0  0  0
  5  6  2  0  0  0  0
  6  7  1  0  0  0  0
  7  8  2  0  0  0  0
  7  9  1  0  0  0  0
  9 10  1  0  0  0  0
 11 10  2  0  0  0  0
 10 28  1  0  0  0  0
 12 11  1  0  0  0  0
 13 12  2  0  0  0  0
 12 26  1  0  0  0  0
 13 14  1  0  0  0  0
 23 13  1  0  0  0  0
 14 15  1  0  0  0  0
 16 15  2  0  0  0  0
 15 22  1  0  0  0  0
 17 16  1  0  0  0  0
 18 17  2  0  0  0  0
 18 19  1  0  0  0  0
 20 18  1  0  0  0  0
 20 21  1  0  0  0  0
 22 20  2  0  0  0  0
 24 23  2  0  0  0  0
 25 24  1  0  0  0  0
 26 25  2  0  0  0  0
 27 26  1  0  0  0  0
 28 27  2  0  0  0  0
 28 29  1  0  0  0  0
 29 30  1  0  0  0  0
 31 30  1  0  0  0  0
 30 34  1  0  0  0  0
 32 31  1  0  0  0  0
 33 32  1  0  0  0  0
 34 33  1  0  0  0  0
M  END
> <Inchi_key>
ULXXDDBFHOBEHA-ONEGZZNKSA-N

> <Source>
Mulliner

> <ID>
HT2287

> <H_MFHB>
0

> <CAS>
439081-18-2

> <Cholestasis>


> <Name>


> <Class>
0

$$$$