

  -INDIGO-08031710012D

 10 10  0  0  0  0  0  0  0  0999 V2000
    4.7250   -0.6495    0.0000 O   0  0  0  0  0  0  0  0  0  0  0  0
    3.9750   -1.9486    0.0000 C   0  0  0  0  0  0  0  0  0  0  0  0
    4.7250   -3.2476    0.0000 O   0  0  0  0  0  0  0  0  0  0  0  0
    2.4750   -1.9486    0.0000 C   0  0  0  0  0  0  0  0  0  0  0  0
    1.7250   -3.2476    0.0000 C   0  0  0  0  0  0  0  0  0  0  0  0
    0.2250   -3.2476    0.0000 C   0  0  0  0  0  0  0  0  0  0  0  0
   -0.5250   -1.9486    0.0000 C   0  0  0  0  0  0  0  0  0  0  0  0
    0.2250   -0.6495    0.0000 C   0  0  0  0  0  0  0  0  0  0  0  0
    1.7250   -0.6495    0.0000 C   0  0  0  0  0  0  0  0  0  0  0  0
    2.4750    0.6495    0.0000 O   0  0  0  0  0  0  0  0  0  0  0  0
  1  2  1  0  0  0  0
  2  3  2  0  0  0  0
  2  4  1  0  0  0  0
  5  4  2  0  0  0  0
  4  9  1  0  0  0  0
  6  5  1  0  0  0  0
  7  6  2  0  0  0  0
  8  7  1  0  0  0  0
  9  8  2  0  0  0  0
  9 10  1  0  0  0  0
M  END
> <Inchi_key>
YGSDEFSMJLZEOE-UHFFFAOYSA-N

> <Source>
Mulliner

> <ID>
HT1264

> <H_MFHB>
0

> <CAS>


> <Cholestasis>


> <Name>
magnesium salicylate;salicylic acid

> <Class>
0


$$$$