

  -INDIGO-08031710012D

 26 28  0  0  0  0  0  0  0  0999 V2000
   14.1346   -8.4937    0.0000 C   0  0  0  0  0  0  0  0  0  0  0  0
   12.6345   -8.4937    0.0000 O   0  0  0  0  0  0  0  0  0  0  0  0
   11.8847   -7.1947    0.0000 C   0  0  0  0  0  0  0  0  0  0  0  0
   10.3846   -7.1947    0.0000 C   0  0  0  0  0  0  0  0  0  0  0  0
    9.6346   -5.8957    0.0000 C   0  0  0  0  0  0  0  0  0  0  0  0
   10.3846   -4.5966    0.0000 C   0  0  0  0  0  0  0  0  0  0  0  0
   11.8847   -4.5966    0.0000 C   0  0  0  0  0  0  0  0  0  0  0  0
   12.6345   -5.8957    0.0000 C   0  0  0  0  0  0  0  0  0  0  0  0
    9.6346   -3.2976    0.0000 C   0  0  0  0  0  0  0  0  0  0  0  0
   10.3846   -1.9984    0.0000 O   0  0  0  0  0  0  0  0  0  0  0  0
    8.1345   -3.2976    0.0000 N   0  0  0  0  0  0  0  0  0  0  0  0
    7.3847   -1.9984    0.0000 C   0  0  0  0  0  0  0  0  0  0  0  0
    8.1345   -0.6996    0.0000 C   0  0  0  0  0  0  0  0  0  0  0  0
    7.3847    0.5996    0.0000 C   0  0  0  0  0  0  0  0  0  0  0  0
    5.8846    0.5996    0.0000 C   0  0  0  0  0  0  0  0  0  0  0  0
    5.1346   -0.6996    0.0000 C   0  0  0  0  0  0  0  0  0  0  0  0
    5.8846   -1.9984    0.0000 C   0  0  0  0  0  0  0  0  0  0  0  0
    5.1346   -3.2976    0.0000 C   0  0  0  0  0  0  0  0  0  0  0  0
    3.6345   -3.2976    0.0000 C   0  0  0  0  0  0  0  0  0  0  0  0
    2.8847   -4.5966    0.0000 C   0  0  0  0  0  0  0  0  0  0  0  0
    3.6345   -5.8957    0.0000 C   0  0  0  0  0  0  0  0  0  0  0  0
    2.8847   -7.1947    0.0000 C   0  0  0  0  0  0  0  0  0  0  0  0
    1.3846   -7.1947    0.0000 C   0  0  0  0  0  0  0  0  0  0  0  0
    0.6346   -5.8957    0.0000 C   0  0  0  0  0  0  0  0  0  0  0  0
    1.3846   -4.5966    0.0000 N   0  0  0  0  0  0  0  0  0  0  0  0
    0.6346   -3.2976    0.0000 C   0  0  0  0  0  0  0  0  0  0  0  0
  1  2  1  0  0  0  0
  2  3  1  0  0  0  0
  4  3  2  0  0  0  0
  3  8  1  0  0  0  0
  5  4  1  0  0  0  0
  6  5  2  0  0  0  0
  7  6  1  0  0  0  0
  6  9  1  0  0  0  0
  8  7  2  0  0  0  0
  9 10  2  0  0  0  0
  9 11  1  0  0  0  0
 11 12  1  0  0  0  0
 13 12  2  0  0  0  0
 12 17  1  0  0  0  0
 14 13  1  0  0  0  0
 15 14  2  0  0  0  0
 16 15  1  0  0  0  0
 17 16  2  0  0  0  0
 17 18  1  0  0  0  0
 18 19  1  0  0  0  0
 19 20  1  0  0  0  0
 21 20  1  0  0  0  0
 20 25  1  0  0  0  0
 22 21  1  0  0  0  0
 23 22  1  0  0  0  0
 24 23  1  0  0  0  0
 25 24  1  0  0  0  0
 25 26  1  0  0  0  0
M  END
> <Inchi_key>
PJWPNDMDCLXCOM-UHFFFAOYSA-N

> <Source>
Mulliner

> <ID>
HT0755

> <H_MFHB>
0

> <CAS>


> <Cholestasis>


> <Name>
encainide

> <Class>
0


$$$$