
  -INDIGO-08031710012D

 25 28  0  0  0  0  0  0  0  0999 V2000
    8.1750   -5.0123    0.0000 C   0  0  0  0  0  0  0  0  0  0  0  0
    8.1647   -6.5122    0.0000 C   0  0  0  0  0  0  0  0  0  0  0  0
    6.8606   -7.2533    0.0000 C   0  0  0  0  0  0  0  0  0  0  0  0
    6.8501   -8.7532    0.0000 C   0  0  0  0  0  0  0  0  0  0  0  0
    8.1440   -9.5122    0.0000 O   0  0  0  0  0  0  0  0  0  0  0  0
    5.5667   -6.4944    0.0000 N   0  0  0  0  0  0  0  0  0  0  0  0
    4.2625   -7.2354    0.0000 C   0  0  0  0  0  0  0  0  0  0  0  0
    4.2523   -8.7354    0.0000 O   0  0  0  0  0  0  0  0  0  0  0  0
    2.9688   -6.4765    0.0000 C   0  0  0  0  0  0  0  0  0  0  0  0
    2.9790   -4.9765    0.0000 C   0  0  0  0  0  0  0  0  0  0  0  0
    1.6851   -4.2176    0.0000 N   0  0  0  0  0  0  0  0  0  0  0  0
    1.6838   -2.7176    0.0000 C   0  0  0  0  0  0  0  0  0  0  0  0
    0.3734   -4.9919    0.0000 C   0  0  0  0  0  0  0  0  0  0  0  0
   -0.9011   -4.2651    0.0000 C   0  0  0  0  0  0  0  0  0  0  0  0
   -2.1662   -5.0025    0.0000 C   0  0  0  0  0  0  0  0  0  0  0  0
   -3.5863   -4.5276    0.0000 C   0  0  0  0  0  0  0  0  0  0  0  0
   -4.5020   -6.1533    0.0000 N   0  0  0  0  0  0  0  0  0  0  0  0
   -3.4245   -7.2096    0.0000 C   0  0  0  0  0  0  0  0  0  0  0  0
   -3.4135   -8.6815    0.0000 C   0  0  0  0  0  0  0  0  0  0  0  0
   -2.1359   -9.4072    0.0000 C   0  0  0  0  0  0  0  0  0  0  0  0
   -0.8772   -8.6626    0.0000 C   0  0  0  0  0  0  0  0  0  0  0  0
   -0.8824   -7.2002    0.0000 C   0  0  0  0  0  0  0  0  0  0  0  0
    0.3787   -6.4542    0.0000 C   0  0  0  0  0  0  0  0  0  0  0  0
    1.6644   -7.2175    0.0000 C   0  0  0  0  0  0  0  0  0  0  0  0
   -2.1560   -6.4711    0.0000 C   0  0  0  0  0  0  0  0  0  0  0  0
  1  2  1  0  0  0  0
  2  3  1  0  0  0  0
  3  4  1  0  0  0  0
  3  6  1  0  0  0  0
  4  5  1  0  0  0  0
  6  7  1  0  0  0  0
  7  8  2  0  0  0  0
  7  9  1  0  0  0  0
 10  9  1  0  0  0  0
  9 24  1  0  0  0  0
 11 10  1  0  0  0  0
 11 12  1  0  0  0  0
 13 11  1  0  0  0  0
 14 13  1  0  0  0  0
 13 23  1  0  0  0  0
 15 14  1  0  0  0  0
 16 15  2  0  0  0  0
 15 25  1  0  0  0  0
 17 16  1  0  0  0  0
 18 17  1  0  0  0  0
 18 19  1  0  0  0  0
 25 18  2  0  0  0  0
 19 20  2  0  0  0  0
 20 21  1  0  0  0  0
 21 22  2  0  0  0  0
 23 22  1  0  0  0  0
 22 25  1  0  0  0  0
 24 23  2  0  0  0  0
M  END
> <Inchi_key>
UNBRKDKAWYKMIV-UHFFFAOYSA-N

> <Source>
Mulliner , Kotsampasakou

> <ID>
EK0341;HT1362

> <H_MFHB>
0

> <CAS>


> <Cholestasis>
0

> <Name>
methylergonovine maleate;methylergonovine;methylergometrine

> <Class>
0

$$$$