

  -INDIGO-08031710012D

 23 25  0  0  0  0  0  0  0  0999 V2000
   14.4634    3.5712    0.0000 C   0  0  0  0  0  0  0  0  0  0  0  0
   13.7134    4.8702    0.0000 O   0  0  0  0  0  0  0  0  0  0  0  0
   12.2134    4.8702    0.0000 C   0  0  0  0  0  0  0  0  0  0  0  0
   11.4634    3.5712    0.0000 O   0  0  0  0  0  0  0  0  0  0  0  0
   11.4634    6.1693    0.0000 N   0  0  0  0  0  0  0  0  0  0  0  0
    9.9634    6.1693    0.0000 C   0  0  0  0  0  0  0  0  0  0  0  0
    9.0816    7.3828    0.0000 N   0  0  0  0  0  0  0  0  0  0  0  0
    7.6551    6.9193    0.0000 C   0  0  0  0  0  0  0  0  0  0  0  0
    6.3560    7.6693    0.0000 C   0  0  0  0  0  0  0  0  0  0  0  0
    5.0572    6.9193    0.0000 C   0  0  0  0  0  0  0  0  0  0  0  0
    5.0572    5.4193    0.0000 C   0  0  0  0  0  0  0  0  0  0  0  0
    6.3560    4.6693    0.0000 C   0  0  0  0  0  0  0  0  0  0  0  0
    7.6551    5.4193    0.0000 C   0  0  0  0  0  0  0  0  0  0  0  0
    9.0816    4.9557    0.0000 N   0  0  0  0  0  0  0  0  0  0  0  0
    3.7581    7.6693    0.0000 C   0  0  0  0  0  0  0  0  0  0  0  0
    3.7581    9.1693    0.0000 O   0  0  0  0  0  0  0  0  0  0  0  0
    2.4590    6.9193    0.0000 C   0  0  0  0  0  0  0  0  0  0  0  0
    2.4590    5.4193    0.0000 C   0  0  0  0  0  0  0  0  0  0  0  0
    1.1601    4.6693    0.0000 C   0  0  0  0  0  0  0  0  0  0  0  0
   -0.1390    5.4193    0.0000 C   0  0  0  0  0  0  0  0  0  0  0  0
   -1.4381    4.6693    0.0000 F   0  0  0  0  0  0  0  0  0  0  0  0
   -0.1390    6.9193    0.0000 C   0  0  0  0  0  0  0  0  0  0  0  0
    1.1601    7.6693    0.0000 C   0  0  0  0  0  0  0  0  0  0  0  0
  1  2  1  0  0  0  0
  2  3  1  0  0  0  0
  3  4  2  0  0  0  0
  3  5  1  0  0  0  0
  5  6  1  0  0  0  0
  7  6  2  0  0  0  0
  6 14  1  0  0  0  0
  8  7  1  0  0  0  0
  9  8  2  0  0  0  0
  8 13  1  0  0  0  0
 10  9  1  0  0  0  0
 11 10  2  0  0  0  0
 10 15  1  0  0  0  0
 12 11  1  0  0  0  0
 13 12  2  0  0  0  0
 14 13  1  0  0  0  0
 15 16  2  0  0  0  0
 15 17  1  0  0  0  0
 18 17  2  0  0  0  0
 17 23  1  0  0  0  0
 19 18  1  0  0  0  0
 20 19  2  0  0  0  0
 20 21  1  0  0  0  0
 22 20  1  0  0  0  0
 23 22  2  0  0  0  0
M  END
> <Inchi_key>
CPEUVMUXAHMANV-UHFFFAOYSA-N

> <Source>
Mulliner

> <ID>
HT0887

> <H_MFHB>
0

> <CAS>


> <Cholestasis>


> <Name>
flubendazole

> <Class>
0


$$$$