
  -INDIGO-08031710012D

 17 18  0  0  0  0  0  0  0  0999 V2000
    8.6099   -2.7042    0.0000 N   0  0  0  0  0  0  0  0  0  0  0  0
    7.9744   -4.0629    0.0000 C   0  0  0  0  0  0  0  0  0  0  0  0
    8.8333   -5.2927    0.0000 O   0  0  0  0  0  0  0  0  0  0  0  0
    6.4799   -4.1919    0.0000 C   0  0  0  0  0  0  0  0  0  0  0  0
    5.4973   -3.0587    0.0000 C   0  0  0  0  0  0  0  0  0  0  0  0
    4.1157   -3.6431    0.0000 N   0  0  0  0  0  0  0  0  0  0  0  0
    2.8309   -2.8690    0.0000 C   0  0  0  0  0  0  0  0  0  0  0  0
    1.5180   -3.5947    0.0000 C   0  0  0  0  0  0  0  0  0  0  0  0
    1.4901   -5.0944    0.0000 C   0  0  0  0  0  0  0  0  0  0  0  0
    2.7749   -5.8685    0.0000 F   0  0  0  0  0  0  0  0  0  0  0  0
    0.1773   -5.8201    0.0000 C   0  0  0  0  0  0  0  0  0  0  0  0
   -1.1075   -5.0460    0.0000 C   0  0  0  0  0  0  0  0  0  0  0  0
   -1.0794   -3.5463    0.0000 C   0  0  0  0  0  0  0  0  0  0  0  0
    0.2333   -2.8206    0.0000 C   0  0  0  0  0  0  0  0  0  0  0  0
    0.2612   -1.3209    0.0000 F   0  0  0  0  0  0  0  0  0  0  0  0
    4.2448   -5.1376    0.0000 N   0  0  0  0  0  0  0  0  0  0  0  0
    5.7058   -5.4767    0.0000 N   0  0  0  0  0  0  0  0  0  0  0  0
  1  2  1  0  0  0  0
  2  3  2  0  0  0  0
  2  4  1  0  0  0  0
  5  4  2  0  0  0  0
  4 17  1  0  0  0  0
  6  5  1  0  0  0  0
  6  7  1  0  0  0  0
 16  6  1  0  0  0  0
  7  8  1  0  0  0  0
  9  8  2  0  0  0  0
  8 14  1  0  0  0  0
  9 10  1  0  0  0  0
 11  9  1  0  0  0  0
 12 11  2  0  0  0  0
 13 12  1  0  0  0  0
 14 13  2  0  0  0  0
 14 15  1  0  0  0  0
 17 16  2  0  0  0  0
M  END
> <Inchi_key>
POGQSBRIGCQNEG-UHFFFAOYSA-N

> <Source>
Mulliner

> <ID>
HT1856

> <H_MFHB>
0

> <CAS>


> <Cholestasis>


> <Name>
rufinamide

> <Class>
0

$$$$