

  -INDIGO-08031710012D

 12 12  0  0  0  0  0  0  0  0999 V2000
   -0.4853    5.3603    0.0000 C   0  0  0  0  0  0  0  0  0  0  0  0
   -0.4853    3.8603    0.0000 O   0  0  0  0  0  0  0  0  0  0  0  0
    0.8137    3.1103    0.0000 C   0  0  0  0  0  0  0  0  0  0  0  0
    2.1126    3.8603    0.0000 C   0  0  0  0  0  0  0  0  0  0  0  0
    3.4119    3.1103    0.0000 C   0  0  0  0  0  0  0  0  0  0  0  0
    4.7108    3.8603    0.0000 C   0  0  0  0  0  0  0  0  0  0  0  0
    6.0099    3.1103    0.0000 C   0  0  0  0  0  0  0  0  0  0  0  0
    7.3089    3.8603    0.0000 C   0  0  0  0  0  0  0  0  0  0  0  0
    3.4119    1.6103    0.0000 C   0  0  0  0  0  0  0  0  0  0  0  0
    2.1126    0.8603    0.0000 C   0  0  0  0  0  0  0  0  0  0  0  0
    0.8137    1.6103    0.0000 C   0  0  0  0  0  0  0  0  0  0  0  0
   -0.4853    0.8603    0.0000 O   0  0  0  0  0  0  0  0  0  0  0  0
  1  2  1  0  0  0  0
  2  3  1  0  0  0  0
  4  3  2  0  0  0  0
  3 11  1  0  0  0  0
  5  4  1  0  0  0  0
  5  6  1  0  0  0  0
  9  5  2  0  0  0  0
  6  7  1  0  0  0  0
  7  8  2  0  0  0  0
 10  9  1  0  0  0  0
 11 10  2  0  0  0  0
 11 12  1  0  0  0  0
M  END
> <Inchi_key>
RRAFCDWBNXTKKO-UHFFFAOYSA-N

> <Source>
Mulliner

> <ID>
HT2690

> <H_MFHB>
0

> <CAS>
97-53-0

> <Cholestasis>


> <Name>


> <Class>
0


$$$$