

  -INDIGO-08031710012D

 15 15  0  0  0  0  0  0  0  0999 V2000
    6.7500   -3.3775    0.0000 N   0  0  0  0  0  0  0  0  0  0  0  0
    6.0000   -4.6765    0.0000 C   0  0  0  0  0  0  0  0  0  0  0  0
    6.7500   -5.9756    0.0000 N   0  0  0  0  0  0  0  0  0  0  0  0
    4.5000   -4.6765    0.0000 N   0  0  0  0  0  0  0  0  0  0  0  0
    3.7500   -3.3775    0.0000 C   0  0  0  0  0  0  0  0  0  0  0  0
    4.5000   -2.0785    0.0000 O   0  0  0  0  0  0  0  0  0  0  0  0
    2.2501   -3.3775    0.0000 C   0  0  0  0  0  0  0  0  0  0  0  0
    1.5000   -4.6765    0.0000 N   0  0  0  0  0  0  0  0  0  0  0  0
    0.0000   -4.6765    0.0000 C   0  0  0  0  0  0  0  0  0  0  0  0
   -0.7499   -5.9756    0.0000 Cl  0  0  0  0  0  0  0  0  0  0  0  0
   -0.7499   -3.3775    0.0000 C   0  0  0  0  0  0  0  0  0  0  0  0
   -2.2500   -3.3775    0.0000 N   0  0  0  0  0  0  0  0  0  0  0  0
    0.0000   -2.0785    0.0000 N   0  0  0  0  0  0  0  0  0  0  0  0
    1.5000   -2.0785    0.0000 C   0  0  0  0  0  0  0  0  0  0  0  0
    2.2501   -0.7794    0.0000 N   0  0  0  0  0  0  0  0  0  0  0  0
  1  2  1  0  0  0  0
  2  3  2  0  0  0  0
  2  4  1  0  0  0  0
  4  5  1  0  0  0  0
  5  6  2  0  0  0  0
  5  7  1  0  0  0  0
  8  7  2  0  0  0  0
  7 14  1  0  0  0  0
  9  8  1  0  0  0  0
  9 10  1  0  0  0  0
 11  9  2  0  0  0  0
 11 12  1  0  0  0  0
 13 11  1  0  0  0  0
 14 13  2  0  0  0  0
 14 15  1  0  0  0  0
M  END
> <Inchi_key>
XSDQTOBWRPYKKA-UHFFFAOYSA-N

> <Source>
Mulliner

> <ID>
HT0131

> <H_MFHB>
0

> <CAS>


> <Cholestasis>


> <Name>
amiloride hydrochloride;amiloride

> <Class>
0


$$$$