
  -INDIGO-08031710012D

 17 17  0  0  0  0  0  0  0  0999 V2000
    2.9660    2.6274    0.0000 C   0  0  0  0  0  0  0  0  0  0  0  0
    3.7159    3.9265    0.0000 C   0  0  0  0  0  0  0  0  0  0  0  0
    5.0150    3.1765    0.0000 C   0  0  0  0  0  0  0  0  0  0  0  0
    4.4660    5.2255    0.0000 C   0  0  0  0  0  0  0  0  0  0  0  0
    2.4170    4.6765    0.0000 N   0  0  0  0  0  0  0  0  0  0  0  0
    1.1178    3.9265    0.0000 C   0  0  0  0  0  0  0  0  0  0  0  0
   -0.1811    4.6765    0.0000 C   0  0  0  0  0  0  0  0  0  0  0  0
   -0.1811    6.1765    0.0000 O   0  0  0  0  0  0  0  0  0  0  0  0
   -1.4801    3.9265    0.0000 C   0  0  0  0  0  0  0  0  0  0  0  0
   -1.4801    2.4265    0.0000 C   0  0  0  0  0  0  0  0  0  0  0  0
   -2.7792    1.6765    0.0000 C   0  0  0  0  0  0  0  0  0  0  0  0
   -4.0782    2.4265    0.0000 C   0  0  0  0  0  0  0  0  0  0  0  0
   -5.3773    1.6765    0.0000 O   0  0  0  0  0  0  0  0  0  0  0  0
   -4.0782    3.9265    0.0000 C   0  0  0  0  0  0  0  0  0  0  0  0
   -5.3773    4.6765    0.0000 C   0  0  0  0  0  0  0  0  0  0  0  0
   -5.3773    6.1765    0.0000 O   0  0  0  0  0  0  0  0  0  0  0  0
   -2.7792    4.6765    0.0000 N   0  0  0  0  0  0  0  0  0  0  0  0
  1  2  1  0  0  0  0
  2  3  1  0  0  0  0
  2  4  1  0  0  0  0
  2  5  1  0  0  0  0
  5  6  1  0  0  0  0
  6  7  1  0  0  0  0
  7  8  1  0  0  0  0
  7  9  1  0  0  0  0
 10  9  2  0  0  0  0
  9 17  1  0  0  0  0
 11 10  1  0  0  0  0
 12 11  2  0  0  0  0
 12 13  1  0  0  0  0
 14 12  1  0  0  0  0
 14 15  1  0  0  0  0
 17 14  2  0  0  0  0
 15 16  1  0  0  0  0
M  END
> <Inchi_key>
VQDBNKDJNJQRDG-UHFFFAOYSA-N

> <Source>
Mulliner , Kotsampasakou

> <ID>
EK0430;HT1689

> <H_MFHB>
0

> <CAS>


> <Cholestasis>
0

> <Name>
pirbuterol acetate;pirbuterol

> <Class>
0

$$$$