

  -INDIGO-08031710012D

 13 15  0  0  0  0  0  0  0  0999 V2000
    6.1553   -0.4731    0.0000 C   0  0  0  0  0  0  0  0  0  0  0  0
    5.3690   -1.7505    0.0000 C   0  0  0  0  0  0  0  0  0  0  0  0
    6.0822   -3.0701    0.0000 N   0  0  0  0  0  0  0  0  0  0  0  0
    3.8696   -1.7083    0.0000 C   0  0  0  0  0  0  0  0  0  0  0  0
    2.6156   -2.6494    0.0000 C   0  0  0  0  0  0  0  0  0  0  0  0
    1.0669   -2.5597    0.0000 C   0  0  0  0  0  0  0  0  0  0  0  0
    0.5904   -1.1637    0.0000 C   0  0  0  0  0  0  0  0  0  0  0  0
    1.8907   -0.2469    0.0000 C   0  0  0  0  0  0  0  0  0  0  0  0
    1.4780   -1.5872    0.0000 C   0  0  0  0  0  0  0  0  0  0  0  0
    1.8870   -2.9052    0.0000 C   0  0  0  0  0  0  0  0  0  0  0  0
    0.5776   -3.9994    0.0000 C   0  0  0  0  0  0  0  0  0  0  0  0
    3.3305   -2.9963    0.0000 C   0  0  0  0  0  0  0  0  0  0  0  0
    3.3783   -0.3199    0.0000 C   0  0  0  0  0  0  0  0  0  0  0  0
  1  2  1  0  0  0  0
  2  3  1  0  0  0  0
  2  4  1  0  0  0  0
  5  4  1  0  0  0  0
 12  4  1  0  0  0  0
  4 13  1  0  0  0  0
  6  5  1  0  0  0  0
  6  7  1  0  0  0  0
 11  6  1  0  0  0  0
  7  8  1  0  0  0  0
  8  9  1  0  0  0  0
 13  8  1  0  0  0  0
  9 10  1  0  0  0  0
 10 11  1  0  0  0  0
 10 12  1  0  0  0  0
M  END
> <Inchi_key>
UBCHPRBFMUDMNC-UHFFFAOYSA-N

> <Source>
Mulliner , Kotsampasakou

> <ID>
EK0470;HT1826

> <H_MFHB>
0

> <CAS>


> <Cholestasis>
0

> <Name>
rimantadine hydrochloride;rimantadine

> <Class>
0


$$$$