

  -INDIGO-08031710012D

 24 25  0  0  0  0  0  0  0  0999 V2000
   -2.4601    2.4601    0.0000 C   0  0  0  0  0  0  0  0  0  0  0  0
   -2.4601    3.9601    0.0000 C   0  0  0  0  0  0  0  0  0  0  0  0
   -1.1610    4.7101    0.0000 O   0  0  0  0  0  0  0  0  0  0  0  0
   -1.1610    6.2101    0.0000 C   0  0  0  0  0  0  0  0  0  0  0  0
   -2.4601    6.9601    0.0000 O   0  0  0  0  0  0  0  0  0  0  0  0
    0.1379    6.9601    0.0000 C   0  0  0  0  0  0  0  0  0  0  0  0
    0.8880    5.6611    0.0000 C   0  0  0  0  0  0  0  0  0  0  0  0
   -0.6120    8.2590    0.0000 C   0  0  0  0  0  0  0  0  0  0  0  0
    0.1379    9.5581    0.0000 C   0  0  0  0  0  0  0  0  0  0  0  0
    1.4370    7.7101    0.0000 O   0  0  0  0  0  0  0  0  0  0  0  0
    2.7361    6.9601    0.0000 C   0  0  0  0  0  0  0  0  0  0  0  0
    2.7361    5.4601    0.0000 C   0  0  0  0  0  0  0  0  0  0  0  0
    4.0352    4.7101    0.0000 C   0  0  0  0  0  0  0  0  0  0  0  0
    5.3341    5.4601    0.0000 C   0  0  0  0  0  0  0  0  0  0  0  0
    6.6332    4.7101    0.0000 C   0  0  0  0  0  0  0  0  0  0  0  0
    7.9323    5.4601    0.0000 C   0  0  0  0  0  0  0  0  0  0  0  0
    9.2314    4.7101    0.0000 C   0  0  0  0  0  0  0  0  0  0  0  0
   10.5303    5.4601    0.0000 C   0  0  0  0  0  0  0  0  0  0  0  0
   10.5303    6.9601    0.0000 C   0  0  0  0  0  0  0  0  0  0  0  0
   11.8294    7.7101    0.0000 Cl  0  0  0  0  0  0  0  0  0  0  0  0
    9.2314    7.7101    0.0000 C   0  0  0  0  0  0  0  0  0  0  0  0
    7.9323    6.9601    0.0000 C   0  0  0  0  0  0  0  0  0  0  0  0
    5.3341    6.9601    0.0000 C   0  0  0  0  0  0  0  0  0  0  0  0
    4.0352    7.7101    0.0000 C   0  0  0  0  0  0  0  0  0  0  0  0
  1  2  1  0  0  0  0
  2  3  1  0  0  0  0
  3  4  1  0  0  0  0
  4  5  2  0  0  0  0
  4  6  1  0  0  0  0
  6  7  1  0  0  0  0
  6  8  1  0  0  0  0
  6 10  1  0  0  0  0
  8  9  1  0  0  0  0
 10 11  1  0  0  0  0
 12 11  2  0  0  0  0
 11 24  1  0  0  0  0
 13 12  1  0  0  0  0
 14 13  2  0  0  0  0
 14 15  1  0  0  0  0
 23 14  1  0  0  0  0
 15 16  1  0  0  0  0
 17 16  2  0  0  0  0
 16 22  1  0  0  0  0
 18 17  1  0  0  0  0
 19 18  2  0  0  0  0
 19 20  1  0  0  0  0
 21 19  1  0  0  0  0
 22 21  2  0  0  0  0
 24 23  2  0  0  0  0
M  END
> <Inchi_key>
YWQGBCXVCXMSLJ-UHFFFAOYSA-N

> <Source>
Mulliner

> <ID>
HT0230

> <H_MFHB>
0

> <CAS>


> <Cholestasis>


> <Name>
beclobrate

> <Class>
0


$$$$