

  -INDIGO-08031710012D

 13 13  0  0  0  0  0  0  0  0999 V2000
   12.3530    3.3100    0.0000 C   0  0  0  0  0  0  0  0  0  0  0  0
   11.0541    2.5600    0.0000 C   0  0  0  0  0  0  0  0  0  0  0  0
    9.7550    3.3100    0.0000 C   0  0  0  0  0  0  0  0  0  0  0  0
    8.4559    2.5600    0.0000 C   0  0  0  0  0  0  0  0  0  0  0  0
    7.1570    3.3100    0.0000 N   0  0  0  0  0  0  0  0  0  0  0  0
    5.8577    2.5600    0.0000 C   0  0  0  0  0  0  0  0  0  0  0  0
    4.5588    3.3100    0.0000 C   0  0  0  0  0  0  0  0  0  0  0  0
    3.2599    2.5600    0.0000 C   0  0  0  0  0  0  0  0  0  0  0  0
    3.2599    1.0600    0.0000 C   0  0  0  0  0  0  0  0  0  0  0  0
    1.9606    0.3100    0.0000 C   0  0  0  0  0  0  0  0  0  0  0  0
    0.6617    1.0600    0.0000 O   0  0  0  0  0  0  0  0  0  0  0  0
    4.5588    0.3100    0.0000 C   0  0  0  0  0  0  0  0  0  0  0  0
    5.8577    1.0600    0.0000 C   0  0  0  0  0  0  0  0  0  0  0  0
  1  2  1  0  0  0  0
  2  3  1  0  0  0  0
  3  4  1  0  0  0  0
  4  5  1  0  0  0  0
  5  6  1  0  0  0  0
  7  6  2  0  0  0  0
  6 13  1  0  0  0  0
  8  7  1  0  0  0  0
  9  8  2  0  0  0  0
  9 10  1  0  0  0  0
 12  9  1  0  0  0  0
 10 11  2  0  0  0  0
 13 12  2  0  0  0  0
M  END
> <Inchi_key>
ZNZMSBIJDNXMOP-UHFFFAOYSA-N

> <Source>
Mulliner

> <ID>
HT0250

> <H_MFHB>
0

> <CAS>
error during interpretation of CCCCNc1ccc(C=O)cc1 as https://cactus.nci.nih.gov/chemical/structure/CCCCNc1ccc(C=O)cc1/cas#

> <Cholestasis>


> <Name>
benzonatate

> <Class>
0


$$$$