
  -INDIGO-08031710012D

 15 15  0  0  0  0  0  0  0  0999 V2000
   10.5658    3.2311    0.0000 C   0  0  0  0  0  0  0  0  0  0  0  0
    9.2666    3.9811    0.0000 C   0  0  0  0  0  0  0  0  0  0  0  0
    7.9678    3.2311    0.0000 C   0  0  0  0  0  0  0  0  0  0  0  0
    6.6687    3.9811    0.0000 C   0  0  0  0  0  0  0  0  0  0  0  0
    5.3696    3.2311    0.0000 N   0  0  0  0  0  0  0  0  0  0  0  0
    5.3696    1.7311    0.0000 C   0  0  0  0  0  0  0  0  0  0  0  0
    4.0705    0.9811    0.0000 C   0  0  0  0  0  0  0  0  0  0  0  0
    4.0705   -0.5189    0.0000 O   0  0  0  0  0  0  0  0  0  0  0  0
    2.7715    1.7311    0.0000 C   0  0  0  0  0  0  0  0  0  0  0  0
    1.4725    0.9811    0.0000 O   0  0  0  0  0  0  0  0  0  0  0  0
    2.7715    3.2311    0.0000 C   0  0  0  0  0  0  0  0  0  0  0  0
    1.4725    3.9811    0.0000 O   0  0  0  0  0  0  0  0  0  0  0  0
    4.0705    3.9811    0.0000 C   0  0  0  0  0  0  0  0  0  0  0  0
    4.0705    5.4811    0.0000 C   0  0  0  0  0  0  0  0  0  0  0  0
    2.7715    6.2311    0.0000 O   0  0  0  0  0  0  0  0  0  0  0  0
  1  2  1  0  0  0  0
  2  3  1  0  0  0  0
  3  4  1  0  0  0  0
  4  5  1  0  0  0  0
  6  5  1  0  0  0  0
  5 13  1  0  0  0  0
  7  6  1  0  0  0  0
  7  8  1  0  0  0  0
  9  7  1  0  0  0  0
  9 10  1  0  0  0  0
 11  9  1  0  0  0  0
 11 12  1  0  0  0  0
 13 11  1  0  0  0  0
 13 14  1  0  0  0  0
 14 15  1  0  0  0  0
M  END
> <Inchi_key>
UQRORFVVSGFNRO-UHFFFAOYSA-N

> <Source>
Mulliner , Kotsampasakou

> <ID>
EK0364;HT1400

> <H_MFHB>
0

> <CAS>


> <Cholestasis>
0

> <Name>
miglustat;n-butyldeoxynojirimycin

> <Class>
0

$$$$