

  -INDIGO-08031710012D

 42 46  0  0  0  0  0  0  0  0999 V2000
    1.4880   -5.0847    0.0000 O   0  0  0  0  0  0  0  0  0  0  0  0
    2.2356   -6.3852    0.0000 C   0  0  0  0  0  0  0  0  0  0  0  0
    1.4832   -7.6828    0.0000 C   0  0  0  0  0  0  0  0  0  0  0  0
    2.2310   -8.9831    0.0000 C   0  0  0  0  0  0  0  0  0  0  0  0
    3.7309   -8.9858    0.0000 N   0  0  0  0  0  0  0  0  0  0  0  0
    4.4833   -7.6881    0.0000 C   0  0  0  0  0  0  0  0  0  0  0  0
    3.7355   -6.3877    0.0000 C   0  0  0  0  0  0  0  0  0  0  0  0
    1.4786  -10.2809    0.0000 C   0  0  0  0  0  0  0  0  0  0  0  0
    4.4879   -5.0901    0.0000 C   0  0  0  0  0  0  0  0  0  0  0  0
    3.7401   -3.7896    0.0000 O   0  0  0  0  0  0  0  0  0  0  0  0
    5.9879   -5.0927    0.0000 N   0  0  0  0  0  0  0  0  0  0  0  0
    6.7403   -3.7951    0.0000 C   0  0  0  0  0  0  0  0  0  0  0  0
    8.2402   -3.7978    0.0000 C   0  0  0  0  0  0  0  0  0  0  0  0
    5.9927   -2.4947    0.0000 C   0  0  0  0  0  0  0  0  0  0  0  0
    8.9926   -2.5000    0.0000 O   0  0  0  0  0  0  0  0  0  0  0  0
    8.9880   -5.0981    0.0000 N   0  0  0  0  0  0  0  0  0  0  0  0
    6.7448   -1.1969    0.0000 C   0  0  0  0  0  0  0  0  0  0  0  0
    4.4925   -2.4920    0.0000 C   0  0  0  0  0  0  0  0  0  0  0  0
   10.4880   -5.1008    0.0000 C   0  0  0  0  0  0  0  0  0  0  0  0
    5.9973    0.1034    0.0000 C   0  0  0  0  0  0  0  0  0  0  0  0
    3.7449   -1.1917    0.0000 C   0  0  0  0  0  0  0  0  0  0  0  0
   11.5506   -4.0420    0.0000 C   0  0  0  0  0  0  0  0  0  0  0  0
   11.5466   -6.1633    0.0000 C   0  0  0  0  0  0  0  0  0  0  0  0
    4.4973    0.1061    0.0000 C   0  0  0  0  0  0  0  0  0  0  0  0
   11.9412   -2.5938    0.0000 S   0  0  0  0  0  0  0  0  0  0  0  0
   12.6092   -5.1046    0.0000 N   0  0  0  0  0  0  0  0  0  0  0  0
   11.5440   -7.6634    0.0000 O   0  0  0  0  0  0  0  0  0  0  0  0
    3.7495    1.4064    0.0000 O   0  0  0  0  0  0  0  0  0  0  0  0
   13.3909   -2.2081    0.0000 C   0  0  0  0  0  0  0  0  0  0  0  0
   14.0587   -4.7190    0.0000 C   0  0  0  0  0  0  0  0  0  0  0  0
   14.4496   -3.2706    0.0000 C   0  0  0  0  0  0  0  0  0  0  0  0
   15.1176   -5.7815    0.0000 C   0  0  0  0  0  0  0  0  0  0  0  0
   15.8993   -2.8851    0.0000 C   0  0  0  0  0  0  0  0  0  0  0  0
   16.5670   -5.3958    0.0000 O   0  0  0  0  0  0  0  0  0  0  0  0
   14.7267   -7.2296    0.0000 O   0  0  0  0  0  0  0  0  0  0  0  0
   16.2899   -1.4370    0.0000 S   0  0  0  0  0  0  0  0  0  0  0  0
   17.7397   -1.0513    0.0000 C   0  0  0  0  0  0  0  0  0  0  0  0
   18.9035   -1.9973    0.0000 N   0  0  0  0  0  0  0  0  0  0  0  0
   18.2797    0.3483    0.0000 N   0  0  0  0  0  0  0  0  0  0  0  0
   20.1631   -1.1826    0.0000 N   0  0  0  0  0  0  0  0  0  0  0  0
   19.7773    0.2670    0.0000 N   0  0  0  0  0  0  0  0  0  0  0  0
   17.4648    1.6076    0.0000 C   0  0  0  0  0  0  0  0  0  0  0  0
  1  2  2  0  0  0  0
  3  2  1  0  0  0  0
  4  3  2  0  0  0  0
  5  4  1  0  0  0  0
  6  5  1  0  0  0  0
  7  6  2  0  0  0  0
  2  7  1  0  0  0  0
  4  8  1  0  0  0  0
  7  9  1  0  0  0  0
  9 10  2  0  0  0  0
  9 11  1  0  0  0  0
 11 12  1  0  0  0  0
 12 13  1  0  0  0  0
 12 14  1  0  0  0  0
 13 15  2  0  0  0  0
 13 16  1  0  0  0  0
 17 14  2  0  0  0  0
 14 18  1  0  0  0  0
 16 19  1  0  0  0  0
 20 17  1  0  0  0  0
 18 21  2  0  0  0  0
 22 19  1  0  0  0  0
 19 23  1  0  0  0  0
 24 20  2  0  0  0  0
 21 24  1  0  0  0  0
 25 22  1  0  0  0  0
 22 26  1  0  0  0  0
 23 26  1  0  0  0  0
 23 27  2  0  0  0  0
 24 28  1  0  0  0  0
 29 25  1  0  0  0  0
 26 30  1  0  0  0  0
 31 29  1  0  0  0  0
 30 31  2  0  0  0  0
 30 32  1  0  0  0  0
 31 33  1  0  0  0  0
 32 34  2  0  0  0  0
 32 35  1  0  0  0  0
 33 36  1  0  0  0  0
 36 37  1  0  0  0  0
 38 37  2  0  0  0  0
 37 39  1  0  0  0  0
 40 38  1  0  0  0  0
 39 41  1  0  0  0  0
 39 42  1  0  0  0  0
 41 40  2  0  0  0  0
M  END
> <Inchi_key>
PWAUCHMQEXVFJR-UHFFFAOYSA-N

> <Source>
Mulliner

> <ID>
HT0416

> <H_MFHB>
0

> <CAS>


> <Cholestasis>


> <Name>
cefpiramide sodium;cefpiramide

> <Class>
0


$$$$