

  -INDIGO-08031709442D

 22 22  0  0  0  0  0  0  0  0999 V2000
   -8.3580   -8.3580    0.0000 O   0  0  0  0  0  0  0  0  0  0  0  0
   -8.3580   -9.8580    0.0000 C   0  0  0  0  0  0  0  0  0  0  0  0
   -7.0590   -7.6080    0.0000 C   0  0  0  0  0  0  0  0  0  0  0  0
   -5.7600   -8.3580    0.0000 C   0  0  0  0  0  0  0  0  0  0  0  0
   -4.4609   -7.6080    0.0000 C   0  0  0  0  0  0  0  0  0  0  0  0
   -4.4609   -6.1080    0.0000 C   0  0  0  0  0  0  0  0  0  0  0  0
   -5.7600   -5.3580    0.0000 C   0  0  0  0  0  0  0  0  0  0  0  0
   -7.0590   -6.1080    0.0000 C   0  0  0  0  0  0  0  0  0  0  0  0
   -8.3580   -5.3580    0.0000 O   0  0  0  0  0  0  0  0  0  0  0  0
   -3.1619   -8.3580    0.0000 C   0  0  0  0  0  0  0  0  0  0  0  0
   -1.8629   -7.6080    0.0000 N   0  0  0  0  0  0  0  0  0  0  0  0
   -0.5636   -8.3580    0.0000 C   0  0  0  0  0  0  0  0  0  0  0  0
   -0.5636   -9.8580    0.0000 O   0  0  0  0  0  0  0  0  0  0  0  0
    0.7354   -7.6080    0.0000 C   0  0  0  0  0  0  0  0  0  0  0  0
    2.0345   -8.3580    0.0000 C   0  0  0  0  0  0  0  0  0  0  0  0
    3.3335   -7.6080    0.0000 C   0  0  0  0  0  0  0  0  0  0  0  0
    4.6325   -8.3580    0.0000 C   0  0  0  0  0  0  0  0  0  0  0  0
    5.9315   -7.6080    0.0000 C   0  0  0  0  0  0  0  0  0  0  0  0
    7.2306   -8.3580    0.0000 C   0  0  0  0  0  0  0  0  0  0  0  0
    8.5296   -7.6080    0.0000 C   0  0  0  0  0  0  0  0  0  0  0  0
    8.5296   -6.1080    0.0000 C   0  0  0  0  0  0  0  0  0  0  0  0
    9.8286   -8.3580    0.0000 C   0  0  0  0  0  0  0  0  0  0  0  0
  1  2  1  0  0  0  0
  1  3  1  0  0  0  0
  4  3  2  0  0  0  0
  3  8  1  0  0  0  0
  5  4  1  0  0  0  0
  6  5  2  0  0  0  0
  5 10  1  0  0  0  0
  7  6  1  0  0  0  0
  8  7  2  0  0  0  0
  8  9  1  0  0  0  0
 10 11  1  0  0  0  0
 11 12  1  0  0  0  0
 12 13  2  0  0  0  0
 12 14  1  0  0  0  0
 14 15  1  0  0  0  0
 15 16  1  0  0  0  0
 16 17  1  0  0  0  0
 17 18  1  0  0  0  0
 18 19  2  0  0  0  0
 19 20  1  0  0  0  0
 20 21  1  0  0  0  0
 20 22  1  0  0  0  0
M  END
> <Inchi_key>
YKPUWZUDDOIDPM-SOFGYWHQSA-N, YKPUWZUDDOIDPM-VURMDHGXSA-N

> <Source>
Kotsampasakou,  Mulliner

> <ID>
HT0367;EK0084

> <H_MFHB>
0

> <CAS>


> <Cholestasis>
0

> <Name>
capsaicin

> <Class>
0


$$$$