
  -INDIGO-08031709442D

 24 26  0  0  0  0  0  0  0  0999 V2000
    2.2417    5.2856    0.0000 Cl  0  0  0  0  0  0  0  0  0  0  0  0
    3.2843    4.2072    0.0000 C   0  0  0  0  0  0  0  0  0  0  0  0
    2.8718    2.7650    0.0000 C   0  0  0  0  0  0  0  0  0  0  0  0
    3.9144    1.6866    0.0000 C   0  0  0  0  0  0  0  0  0  0  0  0
    5.3695    2.0503    0.0000 C   0  0  0  0  0  0  0  0  0  0  0  0
    6.5602    1.1378    0.0000 N   0  0  0  0  0  0  0  0  0  0  0  0
    7.8987    1.8149    0.0000 C   0  0  0  0  0  0  0  0  0  0  0  0
    9.1544    0.9943    0.0000 C   0  0  0  0  0  0  0  0  0  0  0  0
   10.4099    0.1737    0.0000 F   0  0  0  0  0  0  0  0  0  0  0  0
    9.9748    2.2499    0.0000 F   0  0  0  0  0  0  0  0  0  0  0  0
    8.3336   -0.2613    0.0000 F   0  0  0  0  0  0  0  0  0  0  0  0
    6.5898   -0.3619    0.0000 C   0  0  0  0  0  0  0  0  0  0  0  0
    7.9540   -0.9855    0.0000 O   0  0  0  0  0  0  0  0  0  0  0  0
    5.4364   -1.3207    0.0000 C   0  0  0  0  0  0  0  0  0  0  0  0
    3.9678   -1.0161    0.0000 N   0  0  0  0  0  0  0  0  0  0  0  0
    3.2907    0.3224    0.0000 C   0  0  0  0  0  0  0  0  0  0  0  0
    1.7911    0.2928    0.0000 C   0  0  0  0  0  0  0  0  0  0  0  0
    1.0154    1.5767    0.0000 C   0  0  0  0  0  0  0  0  0  0  0  0
   -0.4842    1.5471    0.0000 C   0  0  0  0  0  0  0  0  0  0  0  0
   -1.2084    0.2335    0.0000 C   0  0  0  0  0  0  0  0  0  0  0  0
   -0.4330   -1.0505    0.0000 C   0  0  0  0  0  0  0  0  0  0  0  0
    1.0669   -1.0208    0.0000 C   0  0  0  0  0  0  0  0  0  0  0  0
    5.7823    3.4924    0.0000 C   0  0  0  0  0  0  0  0  0  0  0  0
    4.7397    4.5709    0.0000 C   0  0  0  0  0  0  0  0  0  0  0  0
  1  2  1  0  0  0  0
  3  2  2  0  0  0  0
  2 24  1  0  0  0  0
  4  3  1  0  0  0  0
  4  5  2  0  0  0  0
 16  4  1  0  0  0  0
  5  6  1  0  0  0  0
 23  5  1  0  0  0  0
  6  7  1  0  0  0  0
  6 12  1  0  0  0  0
  7  8  1  0  0  0  0
  8  9  1  0  0  0  0
  8 10  1  0  0  0  0
  8 11  1  0  0  0  0
 12 13  2  0  0  0  0
 12 14  1  0  0  0  0
 14 15  1  0  0  0  0
 15 16  2  0  0  0  0
 16 17  1  0  0  0  0
 18 17  2  0  0  0  0
 17 22  1  0  0  0  0
 19 18  1  0  0  0  0
 20 19  2  0  0  0  0
 21 20  1  0  0  0  0
 22 21  2  0  0  0  0
 24 23  2  0  0  0  0
M  END
> <Inchi_key>
WYCLKVQLVUQKNZ-UHFFFAOYSA-N

> <Source>
Kotsampasakou

> <ID>
EK0254

> <H_MFHB>


> <CAS>


> <Cholestasis>
0

> <Name>
halazepam

> <Class>
0

$$$$