

  -INDIGO-08031710012D

 48 51  0  0  0  0  0  0  0  0999 V2000
    4.1198   15.3760    0.0000 C   0  0  0  0  0  0  0  0  0  0  0  0
    2.8108   14.6435    0.0000 O   0  0  0  0  0  0  0  0  0  0  0  0
    2.7906   13.1436    0.0000 C   0  0  0  0  0  0  0  0  0  0  0  0
    4.0794   12.3762    0.0000 C   0  0  0  0  0  0  0  0  0  0  0  0
    4.0593   10.8764    0.0000 C   0  0  0  0  0  0  0  0  0  0  0  0
    5.3479   10.1090    0.0000 O   0  0  0  0  0  0  0  0  0  0  0  0
    5.3280    8.6091    0.0000 C   0  0  0  0  0  0  0  0  0  0  0  0
    4.0504    8.0030    0.0000 C   0  0  0  0  0  0  0  0  0  0  0  0
    2.9825    9.0566    0.0000 C   0  0  0  0  0  0  0  0  0  0  0  0
    3.4804    6.7597    0.0000 C   0  0  0  0  0  0  0  0  0  0  0  0
    2.0062    7.0361    0.0000 O   0  0  0  0  0  0  0  0  0  0  0  0
    1.0296    5.8975    0.0000 C   0  0  0  0  0  0  0  0  0  0  0  0
    1.5273    4.4826    0.0000 O   0  0  0  0  0  0  0  0  0  0  0  0
    0.5507    3.3440    0.0000 C   0  0  0  0  0  0  0  0  0  0  0  0
    1.0484    1.9290    0.0000 C   0  0  0  0  0  0  0  0  0  0  0  0
   -0.9235    3.6206    0.0000 C   0  0  0  0  0  0  0  0  0  0  0  0
   -1.4214    5.0355    0.0000 C   0  0  0  0  0  0  0  0  0  0  0  0
   -0.4446    6.1739    0.0000 C   0  0  0  0  0  0  0  0  0  0  0  0
   -0.9425    7.5889    0.0000 O   0  0  0  0  0  0  0  0  0  0  0  0
   -2.8956    5.3119    0.0000 N   0  0  0  0  0  0  0  0  0  0  0  0
   -3.8722    4.1733    0.0000 C   0  0  0  0  0  0  0  0  0  0  0  0
   -3.3933    6.7269    0.0000 C   0  0  0  0  0  0  0  0  0  0  0  0
    3.5590    5.4279    0.0000 C   0  0  0  0  0  0  0  0  0  0  0  0
    2.1263    4.9836    0.0000 C   0  0  0  0  0  0  0  0  0  0  0  0
    4.2641    4.2581    0.0000 C   0  0  0  0  0  0  0  0  0  0  0  0
    5.5990    3.7927    0.0000 C   0  0  0  0  0  0  0  0  0  0  0  0
    4.7883    2.5306    0.0000 C   0  0  0  0  0  0  0  0  0  0  0  0
    6.2865    2.4594    0.0000 O   0  0  0  0  0  0  0  0  0  0  0  0
    6.8510    4.6081    0.0000 C   0  0  0  0  0  0  0  0  0  0  0  0
    6.9315    3.1103    0.0000 O   0  0  0  0  0  0  0  0  0  0  0  0
    8.1830    3.9316    0.0000 C   0  0  0  0  0  0  0  0  0  0  0  0
    8.1629    2.4319    0.0000 C   0  0  0  0  0  0  0  0  0  0  0  0
    9.4606    4.5378    0.0000 C   0  0  0  0  0  0  0  0  0  0  0  0
   10.5282    3.4841    0.0000 O   0  0  0  0  0  0  0  0  0  0  0  0
   10.0306    5.7812    0.0000 C   0  0  0  0  0  0  0  0  0  0  0  0
   11.5048    5.5046    0.0000 C   0  0  0  0  0  0  0  0  0  0  0  0
    9.9517    7.1129    0.0000 C   0  0  0  0  0  0  0  0  0  0  0  0
   11.3844    7.5571    0.0000 C   0  0  0  0  0  0  0  0  0  0  0  0
    9.2466    8.2829    0.0000 O   0  0  0  0  0  0  0  0  0  0  0  0
    7.9118    8.7480    0.0000 C   0  0  0  0  0  0  0  0  0  0  0  0
    7.7309   10.2373    0.0000 O   0  0  0  0  0  0  0  0  0  0  0  0
    6.6600    7.9326    0.0000 C   0  0  0  0  0  0  0  0  0  0  0  0
    6.5795    9.4305    0.0000 C   0  0  0  0  0  0  0  0  0  0  0  0
    2.7502   10.1439    0.0000 O   0  0  0  0  0  0  0  0  0  0  0  0
    1.4614   10.9113    0.0000 C   0  0  0  0  0  0  0  0  0  0  0  0
    0.1523   10.1790    0.0000 C   0  0  0  0  0  0  0  0  0  0  0  0
    1.4815   12.4112    0.0000 C   0  0  0  0  0  0  0  0  0  0  0  0
    0.1927   13.1786    0.0000 O   0  0  0  0  0  0  0  0  0  0  0  0
  1  2  1  0  0  0  0
  2  3  1  0  0  0  0
  4  3  1  0  0  0  0
  3 47  1  0  0  0  0
  5  4  1  0  0  0  0
  5  6  1  0  0  0  0
 44  5  1  0  0  0  0
  6  7  1  0  0  0  0
  8  7  1  0  0  0  0
  7 42  1  0  0  0  0
  8  9  1  0  0  0  0
 10  8  1  0  0  0  0
 10 11  1  0  0  0  0
 23 10  1  0  0  0  0
 11 12  1  0  0  0  0
 13 12  1  0  0  0  0
 12 18  1  0  0  0  0
 14 13  1  0  0  0  0
 14 15  1  0  0  0  0
 16 14  1  0  0  0  0
 17 16  1  0  0  0  0
 18 17  1  0  0  0  0
 17 20  1  0  0  0  0
 18 19  1  0  0  0  0
 20 21  1  0  0  0  0
 20 22  1  0  0  0  0
 23 24  1  0  0  0  0
 25 23  1  0  0  0  0
 26 25  1  0  0  0  0
 27 26  1  0  0  0  0
 26 28  1  0  0  0  0
 29 26  1  0  0  0  0
 28 27  1  0  0  0  0
 29 30  2  0  0  0  0
 31 29  1  0  0  0  0
 31 32  1  0  0  0  0
 33 31  1  0  0  0  0
 33 34  1  0  0  0  0
 35 33  1  0  0  0  0
 35 36  1  0  0  0  0
 37 35  1  0  0  0  0
 37 38  1  0  0  0  0
 39 37  1  0  0  0  0
 40 39  1  0  0  0  0
 40 41  2  0  0  0  0
 42 40  1  0  0  0  0
 42 43  1  0  0  0  0
 45 44  1  0  0  0  0
 45 46  1  0  0  0  0
 47 45  1  0  0  0  0
 47 48  1  0  0  0  0
M  END
> <Inchi_key>
RZPAKFUAFGMUPI-UHFFFAOYSA-N

> <Source>
Mulliner

> <ID>
HT3989

> <H_MFHB>
0

> <CAS>
7060-74-4

> <Cholestasis>


> <Name>


> <Class>
0


$$$$