

  -INDIGO-08031710012D

 30 34  0  0  0  0  0  0  0  0999 V2000
    1.4917   -7.5227    0.0000 C   0  0  0  0  0  0  0  0  0  0  0  0
    1.1161   -6.0705    0.0000 N   0  0  0  0  0  0  0  0  0  0  0  0
    2.0701   -4.9131    0.0000 C   0  0  0  0  0  0  0  0  0  0  0  0
    1.2640   -3.6480    0.0000 C   0  0  0  0  0  0  0  0  0  0  0  0
    1.8135   -2.2523    0.0000 C   0  0  0  0  0  0  0  0  0  0  0  0
    3.2658   -1.8765    0.0000 C   0  0  0  0  0  0  0  0  0  0  0  0
    3.3571   -0.3795    0.0000 C   0  0  0  0  0  0  0  0  0  0  0  0
    4.6222    0.4267    0.0000 O   0  0  0  0  0  0  0  0  0  0  0  0
    1.9614    0.1702    0.0000 N   0  0  0  0  0  0  0  0  0  0  0  0
    1.0074   -0.9873    0.0000 C   0  0  0  0  0  0  0  0  0  0  0  0
   -0.4897   -0.8960    0.0000 O   0  0  0  0  0  0  0  0  0  0  0  0
    4.4232   -2.8306    0.0000 C   0  0  0  0  0  0  0  0  0  0  0  0
    4.3317   -4.3278    0.0000 C   0  0  0  0  0  0  0  0  0  0  0  0
    5.7276   -4.8774    0.0000 N   0  0  0  0  0  0  0  0  0  0  0  0
    6.1032   -6.3296    0.0000 C   0  0  0  0  0  0  0  0  0  0  0  0
    6.6814   -3.7199    0.0000 C   0  0  0  0  0  0  0  0  0  0  0  0
    8.1800   -3.6543    0.0000 C   0  0  0  0  0  0  0  0  0  0  0  0
    8.8725   -2.3237    0.0000 C   0  0  0  0  0  0  0  0  0  0  0  0
    8.0666   -1.0587    0.0000 C   0  0  0  0  0  0  0  0  0  0  0  0
    6.5678   -1.1242    0.0000 C   0  0  0  0  0  0  0  0  0  0  0  0
    5.8753   -2.4549    0.0000 C   0  0  0  0  0  0  0  0  0  0  0  0
   10.3711   -2.2582    0.0000 N   0  0  0  0  0  0  0  0  0  0  0  0
   11.1772   -3.5231    0.0000 O   0  0  0  0  0  0  0  0  0  0  0  0
   11.0636   -0.9275    0.0000 O   0  0  0  0  0  0  0  0  0  0  0  0
   -0.1883   -4.0237    0.0000 C   0  0  0  0  0  0  0  0  0  0  0  0
   -1.4393   -3.1960    0.0000 C   0  0  0  0  0  0  0  0  0  0  0  0
   -2.7816   -3.8654    0.0000 C   0  0  0  0  0  0  0  0  0  0  0  0
   -2.8729   -5.3626    0.0000 C   0  0  0  0  0  0  0  0  0  0  0  0
   -1.6219   -6.1903    0.0000 C   0  0  0  0  0  0  0  0  0  0  0  0
   -0.2796   -5.5209    0.0000 C   0  0  0  0  0  0  0  0  0  0  0  0
  1  2  1  0  0  0  0
  3  2  1  0  0  0  0
  2 30  1  0  0  0  0
  4  3  2  0  0  0  0
  4  5  1  0  0  0  0
 25  4  1  0  0  0  0
  6  5  2  0  0  0  0
  5 10  1  0  0  0  0
  7  6  1  0  0  0  0
  6 12  1  0  0  0  0
  7  8  2  0  0  0  0
  9  7  1  0  0  0  0
 10  9  1  0  0  0  0
 10 11  2  0  0  0  0
 13 12  2  0  0  0  0
 12 21  1  0  0  0  0
 14 13  1  0  0  0  0
 14 15  1  0  0  0  0
 16 14  1  0  0  0  0
 17 16  1  0  0  0  0
 16 21  2  0  0  0  0
 18 17  2  0  0  0  0
 19 18  1  0  0  0  0
 18 22  1  0  0  0  0
 20 19  2  0  0  0  0
 21 20  1  0  0  0  0
 22 23  2  0  0  0  0
 22 24  1  0  0  0  0
 26 25  1  0  0  0  0
 25 30  2  0  0  0  0
 27 26  2  0  0  0  0
 28 27  1  0  0  0  0
 29 28  2  0  0  0  0
 30 29  1  0  0  0  0
M  CHG  2  22   1  24  -1
M  END
> <Inchi_key>
OVSKGTONMLKNPZ-UHFFFAOYSA-N

> <Source>
Mulliner

> <ID>
HT3756

> <H_MFHB>
0

> <CAS>
443912-18-3

> <Cholestasis>


> <Name>


> <Class>
0


$$$$