
  -INDIGO-08031710012D

 23 26  0  0  0  0  0  0  0  0999 V2000
   15.8292   -2.0355    0.0000 O   0  0  0  0  0  0  0  0  0  0  0  0
   14.4932   -2.7176    0.0000 C   0  0  0  0  0  0  0  0  0  0  0  0
   14.4160   -4.2156    0.0000 O   0  0  0  0  0  0  0  0  0  0  0  0
   13.2347   -1.9017    0.0000 C   0  0  0  0  0  0  0  0  0  0  0  0
   11.8987   -2.5837    0.0000 C   0  0  0  0  0  0  0  0  0  0  0  0
   10.6399   -1.7678    0.0000 C   0  0  0  0  0  0  0  0  0  0  0  0
   10.7172   -0.2698    0.0000 O   0  0  0  0  0  0  0  0  0  0  0  0
    9.3039   -2.4499    0.0000 C   0  0  0  0  0  0  0  0  0  0  0  0
    9.2267   -3.9479    0.0000 C   0  0  0  0  0  0  0  0  0  0  0  0
    7.8907   -4.6299    0.0000 C   0  0  0  0  0  0  0  0  0  0  0  0
    6.7119   -4.1253    0.0000 C   0  0  0  0  0  0  0  0  0  0  0  0
    5.2563   -4.4760    0.0000 C   0  0  0  0  0  0  0  0  0  0  0  0
    4.5745   -5.7717    0.0000 C   0  0  0  0  0  0  0  0  0  0  0  0
    3.1086   -5.8318    0.0000 C   0  0  0  0  0  0  0  0  0  0  0  0
    2.3284   -4.5949    0.0000 C   0  0  0  0  0  0  0  0  0  0  0  0
    3.0021   -3.2942    0.0000 C   0  0  0  0  0  0  0  0  0  0  0  0
    2.2233   -2.0562    0.0000 C   0  0  0  0  0  0  0  0  0  0  0  0
    2.8953   -0.7573    0.0000 C   0  0  0  0  0  0  0  0  0  0  0  0
    4.3634   -0.6946    0.0000 C   0  0  0  0  0  0  0  0  0  0  0  0
    5.1525   -1.9360    0.0000 C   0  0  0  0  0  0  0  0  0  0  0  0
    6.6257   -2.2614    0.0000 C   0  0  0  0  0  0  0  0  0  0  0  0
    8.0454   -1.6339    0.0000 C   0  0  0  0  0  0  0  0  0  0  0  0
    4.4684   -3.2367    0.0000 C   0  0  0  0  0  0  0  0  0  0  0  0
  1  2  1  0  0  0  0
  2  3  2  0  0  0  0
  2  4  1  0  0  0  0
  4  5  1  0  0  0  0
  5  6  1  0  0  0  0
  6  7  2  0  0  0  0
  6  8  1  0  0  0  0
  9  8  2  0  0  0  0
  8 22  1  0  0  0  0
 10  9  1  0  0  0  0
 11 10  2  0  0  0  0
 12 11  1  0  0  0  0
 11 21  1  0  0  0  0
 13 12  2  0  0  0  0
 12 23  1  0  0  0  0
 14 13  1  0  0  0  0
 15 14  2  0  0  0  0
 16 15  1  0  0  0  0
 16 17  1  0  0  0  0
 23 16  2  0  0  0  0
 17 18  2  0  0  0  0
 18 19  1  0  0  0  0
 19 20  2  0  0  0  0
 21 20  1  0  0  0  0
 20 23  1  0  0  0  0
 22 21  2  0  0  0  0
M  END
> <Inchi_key>
QOBAOSCOLAGPKI-UHFFFAOYSA-N

> <Source>
Mulliner

> <ID>
HT3366

> <H_MFHB>
0

> <CAS>


> <Cholestasis>


> <Name>


> <Class>
0

$$$$