
  -INDIGO-08031710012D

 32 34  0  0  0  0  0  0  0  0999 V2000
   18.8749    3.7045    0.0000 C   0  0  0  0  0  0  0  0  0  0  0  0
   17.3775    3.7921    0.0000 N   0  0  0  0  0  0  0  0  0  0  0  0
   16.5529    2.5391    0.0000 C   0  0  0  0  0  0  0  0  0  0  0  0
   17.2257    1.1985    0.0000 O   0  0  0  0  0  0  0  0  0  0  0  0
   15.0555    2.6267    0.0000 C   0  0  0  0  0  0  0  0  0  0  0  0
   14.3825    3.9672    0.0000 C   0  0  0  0  0  0  0  0  0  0  0  0
   12.8851    4.0548    0.0000 C   0  0  0  0  0  0  0  0  0  0  0  0
   12.0605    2.8017    0.0000 C   0  0  0  0  0  0  0  0  0  0  0  0
   12.7336    1.4611    0.0000 C   0  0  0  0  0  0  0  0  0  0  0  0
   14.2309    1.3736    0.0000 C   0  0  0  0  0  0  0  0  0  0  0  0
   14.9037    0.0330    0.0000 F   0  0  0  0  0  0  0  0  0  0  0  0
   10.5631    2.8893    0.0000 N   0  0  0  0  0  0  0  0  0  0  0  0
    9.6122    1.7293    0.0000 C   0  0  0  0  0  0  0  0  0  0  0  0
    9.9915    0.2781    0.0000 S   0  0  0  0  0  0  0  0  0  0  0  0
    8.2149    2.2753    0.0000 N   0  0  0  0  0  0  0  0  0  0  0  0
    8.3025    3.7728    0.0000 C   0  0  0  0  0  0  0  0  0  0  0  0
    7.1426    4.7238    0.0000 O   0  0  0  0  0  0  0  0  0  0  0  0
    9.7537    4.1522    0.0000 C   0  0  0  0  0  0  0  0  0  0  0  0
    9.4894    5.6287    0.0000 C   0  0  0  0  0  0  0  0  0  0  0  0
   10.9493    5.0582    0.0000 C   0  0  0  0  0  0  0  0  0  0  0  0
    6.9522    1.4660    0.0000 C   0  0  0  0  0  0  0  0  0  0  0  0
    7.0217   -0.0323    0.0000 C   0  0  0  0  0  0  0  0  0  0  0  0
    5.7587   -0.8417    0.0000 C   0  0  0  0  0  0  0  0  0  0  0  0
    4.4262   -0.1527    0.0000 C   0  0  0  0  0  0  0  0  0  0  0  0
    3.1633   -0.9620    0.0000 C   0  0  0  0  0  0  0  0  0  0  0  0
    1.9003   -1.7714    0.0000 N   0  0  0  0  0  0  0  0  0  0  0  0
    4.3568    1.3457    0.0000 C   0  0  0  0  0  0  0  0  0  0  0  0
    5.6197    2.1550    0.0000 C   0  0  0  0  0  0  0  0  0  0  0  0
    3.0246    2.0348    0.0000 C   0  0  0  0  0  0  0  0  0  0  0  0
    1.6921    2.7238    0.0000 F   0  0  0  0  0  0  0  0  0  0  0  0
    3.7136    3.3671    0.0000 F   0  0  0  0  0  0  0  0  0  0  0  0
    2.3355    0.7024    0.0000 F   0  0  0  0  0  0  0  0  0  0  0  0
  1  2  1  0  0  0  0
  2  3  1  0  0  0  0
  3  4  2  0  0  0  0
  3  5  1  0  0  0  0
  6  5  2  0  0  0  0
  5 10  1  0  0  0  0
  7  6  1  0  0  0  0
  8  7  2  0  0  0  0
  9  8  1  0  0  0  0
  8 12  1  0  0  0  0
 10  9  2  0  0  0  0
 10 11  1  0  0  0  0
 13 12  1  0  0  0  0
 12 18  1  0  0  0  0
 13 14  2  0  0  0  0
 15 13  1  0  0  0  0
 16 15  1  0  0  0  0
 15 21  1  0  0  0  0
 16 17  2  0  0  0  0
 18 16  1  0  0  0  0
 18 19  1  0  0  0  0
 18 20  1  0  0  0  0
 22 21  2  0  0  0  0
 21 28  1  0  0  0  0
 23 22  1  0  0  0  0
 24 23  2  0  0  0  0
 24 25  1  0  0  0  0
 27 24  1  0  0  0  0
 25 26  3  0  0  0  0
 28 27  2  0  0  0  0
 27 29  1  0  0  0  0
 29 30  1  0  0  0  0
 29 31  1  0  0  0  0
 29 32  1  0  0  0  0
M  END
> <Inchi_key>
WXCXUHSOUPDCQV-UHFFFAOYSA-N

> <Source>
Mulliner

> <ID>
HT0765

> <H_MFHB>
0

> <CAS>


> <Cholestasis>


> <Name>
enzalutamide

> <Class>
0

$$$$