

  -INDIGO-08031710012D

 38 38  0  0  0  0  0  0  0  0999 V2000
   34.3559  -10.8452    0.0000 C   0  0  0  0  0  0  0  0  0  0  0  0
   33.0567  -11.5952    0.0000 C   0  0  0  0  0  0  0  0  0  0  0  0
   31.7579  -10.8452    0.0000 C   0  0  0  0  0  0  0  0  0  0  0  0
   30.4587  -11.5952    0.0000 C   0  0  0  0  0  0  0  0  0  0  0  0
   29.1600  -10.8452    0.0000 C   0  0  0  0  0  0  0  0  0  0  0  0
   27.8608  -11.5952    0.0000 C   0  0  0  0  0  0  0  0  0  0  0  0
   26.5616  -10.8452    0.0000 C   0  0  0  0  0  0  0  0  0  0  0  0
   25.2628  -11.5952    0.0000 C   0  0  0  0  0  0  0  0  0  0  0  0
   23.9636  -10.8452    0.0000 C   0  0  0  0  0  0  0  0  0  0  0  0
   22.6644  -11.5952    0.0000 C   0  0  0  0  0  0  0  0  0  0  0  0
   21.3656  -10.8452    0.0000 C   0  0  0  0  0  0  0  0  0  0  0  0
   20.0664  -11.5952    0.0000 C   0  0  0  0  0  0  0  0  0  0  0  0
   18.7677  -10.8452    0.0000 C   0  0  0  0  0  0  0  0  0  0  0  0
   18.7677   -9.3452    0.0000 C   0  0  0  0  0  0  0  0  0  0  0  0
   17.4685   -8.5952    0.0000 C   0  0  0  0  0  0  0  0  0  0  0  0
   17.4685   -7.0952    0.0000 C   0  0  0  0  0  0  0  0  0  0  0  0
   18.7677   -6.3452    0.0000 O   0  0  0  0  0  0  0  0  0  0  0  0
   16.1693   -6.3452    0.0000 O   0  0  0  0  0  0  0  0  0  0  0  0
   14.8705   -7.0952    0.0000 C   0  0  0  0  0  0  0  0  0  0  0  0
   13.5713   -6.3452    0.0000 C   0  0  0  0  0  0  0  0  0  0  0  0
   12.2721   -7.0952    0.0000 C   0  0  0  0  0  0  0  0  0  0  0  0
   10.9733   -6.3452    0.0000 C   0  0  0  0  0  0  0  0  0  0  0  0
   12.2721   -8.5952    0.0000 C   0  0  0  0  0  0  0  0  0  0  0  0
   10.9733   -9.3452    0.0000 C   0  0  0  0  0  0  0  0  0  0  0  0
   10.9733  -10.8452    0.0000 C   0  0  0  0  0  0  0  0  0  0  0  0
    9.6741  -11.5952    0.0000 C   0  0  0  0  0  0  0  0  0  0  0  0
    9.6741  -13.0952    0.0000 C   0  0  0  0  0  0  0  0  0  0  0  0
    8.3754  -10.8452    0.0000 C   0  0  0  0  0  0  0  0  0  0  0  0
    7.0762  -11.5952    0.0000 C   0  0  0  0  0  0  0  0  0  0  0  0
    5.7770  -10.8452    0.0000 C   0  0  0  0  0  0  0  0  0  0  0  0
    5.7770   -9.3452    0.0000 C   0  0  0  0  0  0  0  0  0  0  0  0
    7.0762   -8.5952    0.0000 C   0  0  0  0  0  0  0  0  0  0  0  0
    4.4782   -8.5952    0.0000 C   0  0  0  0  0  0  0  0  0  0  0  0
    3.1790   -9.3452    0.0000 C   0  0  0  0  0  0  0  0  0  0  0  0
    3.1790  -10.8452    0.0000 C   0  0  0  0  0  0  0  0  0  0  0  0
    4.4782  -11.5952    0.0000 C   0  0  0  0  0  0  0  0  0  0  0  0
    3.7280  -12.8942    0.0000 C   0  0  0  0  0  0  0  0  0  0  0  0
    5.2280  -12.8942    0.0000 C   0  0  0  0  0  0  0  0  0  0  0  0
  1  2  1  0  0  0  0
  2  3  1  0  0  0  0
  3  4  1  0  0  0  0
  4  5  1  0  0  0  0
  5  6  1  0  0  0  0
  6  7  1  0  0  0  0
  7  8  1  0  0  0  0
  8  9  1  0  0  0  0
  9 10  1  0  0  0  0
 10 11  1  0  0  0  0
 11 12  1  0  0  0  0
 12 13  1  0  0  0  0
 13 14  1  0  0  0  0
 14 15  1  0  0  0  0
 15 16  1  0  0  0  0
 16 17  2  0  0  0  0
 16 18  1  0  0  0  0
 18 19  1  0  0  0  0
 19 20  1  0  0  0  0
 20 21  2  0  0  0  0
 21 22  1  0  0  0  0
 21 23  1  0  0  0  0
 23 24  2  0  0  0  0
 24 25  1  0  0  0  0
 25 26  2  0  0  0  0
 26 27  1  0  0  0  0
 26 28  1  0  0  0  0
 28 29  2  0  0  0  0
 29 30  1  0  0  0  0
 31 30  2  0  0  0  0
 30 36  1  0  0  0  0
 31 32  1  0  0  0  0
 33 31  1  0  0  0  0
 34 33  1  0  0  0  0
 35 34  1  0  0  0  0
 36 35  1  0  0  0  0
 36 37  1  0  0  0  0
 36 38  1  0  0  0  0
M  END
> <Inchi_key>
VYGQUTWHTHXGQB-YFAKFODJSA-N

> <Source>
Mulliner

> <ID>
HT2189

> <H_MFHB>
0

> <CAS>
79-81-2

> <Cholestasis>


> <Name>
vitamin a palmitate;retinyl palmitate

> <Class>
0


$$$$