
  -INDIGO-08031710012D

 20 22  0  0  0  0  0  0  0  0999 V2000
   -0.9827   -3.2175    0.0000 C   0  0  0  0  0  0  0  0  0  0  0  0
    0.3162   -2.4675    0.0000 N   0  0  0  0  0  0  0  0  0  0  0  0
    0.3162   -0.9675    0.0000 C   0  0  0  0  0  0  0  0  0  0  0  0
    1.6154   -3.2175    0.0000 C   0  0  0  0  0  0  0  0  0  0  0  0
    2.9143   -2.4675    0.0000 C   0  0  0  0  0  0  0  0  0  0  0  0
    4.2135   -3.2175    0.0000 C   0  0  0  0  0  0  0  0  0  0  0  0
    4.2135   -4.7175    0.0000 C   0  0  0  0  0  0  0  0  0  0  0  0
    2.9143   -5.4675    0.0000 C   0  0  0  0  0  0  0  0  0  0  0  0
    1.6154   -4.7175    0.0000 C   0  0  0  0  0  0  0  0  0  0  0  0
    5.5124   -5.4675    0.0000 N   0  0  0  0  0  0  0  0  0  0  0  0
    6.8115   -4.7175    0.0000 C   0  0  0  0  0  0  0  0  0  0  0  0
    8.1107   -5.4675    0.0000 C   0  0  0  0  0  0  0  0  0  0  0  0
    9.4096   -4.7175    0.0000 C   0  0  0  0  0  0  0  0  0  0  0  0
    9.4096   -3.2175    0.0000 C   0  0  0  0  0  0  0  0  0  0  0  0
   10.7088   -2.4675    0.0000 N   0  0  0  0  0  0  0  0  0  0  0  0
   10.7088   -0.9675    0.0000 C   0  0  0  0  0  0  0  0  0  0  0  0
   12.0077   -3.2175    0.0000 C   0  0  0  0  0  0  0  0  0  0  0  0
    8.1107   -2.4675    0.0000 C   0  0  0  0  0  0  0  0  0  0  0  0
    6.8115   -3.2175    0.0000 C   0  0  0  0  0  0  0  0  0  0  0  0
    5.5124   -2.4675    0.0000 S   0  0  0  0  0  0  0  0  0  0  0  0
  1  2  1  0  0  0  0
  2  3  1  0  0  0  0
  2  4  1  0  0  0  0
  5  4  2  0  0  0  0
  4  9  1  0  0  0  0
  6  5  1  0  0  0  0
  6  7  2  0  0  0  0
 20  6  1  0  0  0  0
  8  7  1  0  0  0  0
  7 10  1  0  0  0  0
  9  8  2  0  0  0  0
 10 11  2  0  0  0  0
 12 11  1  0  0  0  0
 11 19  1  0  0  0  0
 13 12  2  0  0  0  0
 14 13  1  0  0  0  0
 14 15  2  0  0  0  0
 18 14  1  0  0  0  0
 15 16  1  0  0  0  0
 15 17  1  0  0  0  0
 19 18  2  0  0  0  0
 19 20  1  0  0  0  0
M  CHG  1  15   1
M  END
> <Inchi_key>
RBTBFTRPCNLSDE-UHFFFAOYSA-N

> <Source>
Mulliner

> <ID>
HT0007

> <H_MFHB>
0

> <CAS>


> <Cholestasis>


> <Name>
methylene blue

> <Class>
0

$$$$