

  -INDIGO-08031710012D

 12 13  0  0  0  0  0  0  0  0999 V2000
    7.1250   -3.2476    0.0000 N   0  0  0  0  0  0  0  0  0  0  0  0
    5.6250   -3.2476    0.0000 N   0  0  0  0  0  0  0  0  0  0  0  0
    4.8750   -1.9486    0.0000 C   0  0  0  0  0  0  0  0  0  0  0  0
    5.6250   -0.6495    0.0000 N   0  0  0  0  0  0  0  0  0  0  0  0
    4.8750    0.6495    0.0000 N   0  0  0  0  0  0  0  0  0  0  0  0
    3.3750    0.6495    0.0000 C   0  0  0  0  0  0  0  0  0  0  0  0
    2.6250   -0.6495    0.0000 C   0  0  0  0  0  0  0  0  0  0  0  0
    1.1250   -0.6495    0.0000 C   0  0  0  0  0  0  0  0  0  0  0  0
    0.3750   -1.9486    0.0000 C   0  0  0  0  0  0  0  0  0  0  0  0
    1.1250   -3.2476    0.0000 C   0  0  0  0  0  0  0  0  0  0  0  0
    2.6250   -3.2476    0.0000 C   0  0  0  0  0  0  0  0  0  0  0  0
    3.3750   -1.9486    0.0000 C   0  0  0  0  0  0  0  0  0  0  0  0
  1  2  1  0  0  0  0
  2  3  1  0  0  0  0
  4  3  2  0  0  0  0
  3 12  1  0  0  0  0
  5  4  1  0  0  0  0
  6  5  2  0  0  0  0
  7  6  1  0  0  0  0
  8  7  1  0  0  0  0
  7 12  2  0  0  0  0
  9  8  2  0  0  0  0
 10  9  1  0  0  0  0
 11 10  2  0  0  0  0
 12 11  1  0  0  0  0
M  END
> <Inchi_key>
RPTUSVTUFVMDQK-UHFFFAOYSA-N

> <Source>
Mulliner

> <ID>
HT1042

> <H_MFHB>
0

> <CAS>


> <Cholestasis>


> <Name>
hydralazine hydrochloride;hydralazine

> <Class>
0


$$$$