

  -INDIGO-08031710012D

  5  4  0  0  0  0  0  0  0  0999 V2000
    4.9981   -1.3392    0.0000 C   0  0  0  0  0  0  0  0  0  0  0  0
    3.6990   -0.5892    0.0000 C   0  0  0  0  0  0  0  0  0  0  0  0
    2.4000   -1.3392    0.0000 O   0  0  0  0  0  0  0  0  0  0  0  0
    1.1010   -0.5892    0.0000 C   0  0  0  0  0  0  0  0  0  0  0  0
   -0.1981   -1.3392    0.0000 C   0  0  0  0  0  0  0  0  0  0  0  0
  1  2  1  0  0  0  0
  2  3  1  0  0  0  0
  3  4  1  0  0  0  0
  4  5  1  0  0  0  0
M  END
> <Inchi_key>
RTZKZFJDLAIYFH-UHFFFAOYSA-N

> <Source>
Mulliner

> <ID>
HT2334

> <H_MFHB>
0

> <CAS>


> <Cholestasis>


> <Name>


> <Class>
0


$$$$