
  -INDIGO-08031709442D

 12 12  0  0  0  0  0  0  0  0999 V2000
   -1.7572   -0.5709    0.0000 O   0  0  0  0  0  0  0  0  0  0  0  0
   -0.8755    0.6426    0.0000 C   0  0  0  0  0  0  0  0  0  0  0  0
    0.6245    0.6426    0.0000 C   0  0  0  0  0  0  0  0  0  0  0  0
    1.3744    1.9416    0.0000 O   0  0  0  0  0  0  0  0  0  0  0  0
    1.3744   -0.6564    0.0000 C   0  0  0  0  0  0  0  0  0  0  0  0
    2.8745   -0.6564    0.0000 O   0  0  0  0  0  0  0  0  0  0  0  0
   -1.7572    1.8561    0.0000 C   0  0  0  0  0  0  0  0  0  0  0  0
   -1.2936    3.2827    0.0000 O   0  0  0  0  0  0  0  0  0  0  0  0
   -3.1838    1.3926    0.0000 C   0  0  0  0  0  0  0  0  0  0  0  0
   -4.3972    2.2743    0.0000 O   0  0  0  0  0  0  0  0  0  0  0  0
   -3.1838   -0.1074    0.0000 C   0  0  0  0  0  0  0  0  0  0  0  0
   -4.3972   -0.9891    0.0000 O   0  0  0  0  0  0  0  0  0  0  0  0
  2  1  1  0  0  0  0
  1 11  1  0  0  0  0
  2  3  1  0  0  0  0
  7  2  1  0  0  0  0
  3  4  1  0  0  0  0
  3  5  1  0  0  0  0
  5  6  1  0  0  0  0
  7  8  2  0  0  0  0
  9  7  1  0  0  0  0
  9 10  1  0  0  0  0
 11  9  2  0  0  0  0
 11 12  1  0  0  0  0
M  END
> <Inchi_key>
TYQCGQRIZGCHNB-UHFFFAOYSA-N

> <Source>
Kotsampasakou

> <ID>
EK0041

> <H_MFHB>


> <CAS>


> <Cholestasis>
0

> <Name>
ascorbate

> <Class>
0

$$$$