

  -INDIGO-08031710012D

 16 17  0  0  0  0  0  0  0  0999 V2000
    0.0000    0.8119    0.0000 N   0  0  0  0  0  0  0  0  0  0  0  0
    1.5000    0.8119    0.0000 C   0  0  0  0  0  0  0  0  0  0  0  0
    2.2500   -0.4871    0.0000 C   0  0  0  0  0  0  0  0  0  0  0  0
    3.7500   -0.4871    0.0000 C   0  0  0  0  0  0  0  0  0  0  0  0
    4.5000    0.8119    0.0000 C   0  0  0  0  0  0  0  0  0  0  0  0
    6.0000    0.8119    0.0000 N   0  0  0  0  0  0  0  0  0  0  0  0
    6.7500   -0.4871    0.0000 N   0  0  0  0  0  0  0  0  0  0  0  0
    8.2500   -0.4871    0.0000 C   0  0  0  0  0  0  0  0  0  0  0  0
    9.0000   -1.7862    0.0000 C   0  0  0  0  0  0  0  0  0  0  0  0
   10.5000   -1.7862    0.0000 C   0  0  0  0  0  0  0  0  0  0  0  0
   11.2500   -0.4871    0.0000 C   0  0  0  0  0  0  0  0  0  0  0  0
   10.5000    0.8119    0.0000 C   0  0  0  0  0  0  0  0  0  0  0  0
    9.0000    0.8119    0.0000 C   0  0  0  0  0  0  0  0  0  0  0  0
    3.7500    2.1109    0.0000 C   0  0  0  0  0  0  0  0  0  0  0  0
    4.5000    3.4100    0.0000 N   0  0  0  0  0  0  0  0  0  0  0  0
    2.2500    2.1109    0.0000 N   0  0  0  0  0  0  0  0  0  0  0  0
  1  2  1  0  0  0  0
  3  2  2  0  0  0  0
  2 16  1  0  0  0  0
  4  3  1  0  0  0  0
  5  4  2  0  0  0  0
  5  6  1  0  0  0  0
 14  5  1  0  0  0  0
  6  7  2  0  0  0  0
  7  8  1  0  0  0  0
  9  8  2  0  0  0  0
  8 13  1  0  0  0  0
 10  9  1  0  0  0  0
 11 10  2  0  0  0  0
 12 11  1  0  0  0  0
 13 12  2  0  0  0  0
 14 15  1  0  0  0  0
 16 14  2  0  0  0  0
M  END
> <Inchi_key>
QPFYXYFORQJZEC-FOCLMDBBSA-N

> <Source>
Mulliner

> <ID>
HT1642

> <H_MFHB>
0

> <CAS>
136-40-3

> <Cholestasis>


> <Name>
phenazopyridine hydrochloride;phenazopyridine

> <Class>
0


$$$$