

  -INDIGO-08031710012D

 16 16  0  0  0  0  0  0  0  0999 V2000
    0.0579    0.2160    0.0000 C   0  0  0  0  0  0  0  0  0  0  0  0
    1.3569   -0.5340    0.0000 C   0  0  0  0  0  0  0  0  0  0  0  0
    1.3569   -2.0340    0.0000 C   0  0  0  0  0  0  0  0  0  0  0  0
    2.6559    0.2160    0.0000 C   0  0  0  0  0  0  0  0  0  0  0  0
    3.9550   -0.5340    0.0000 C   0  0  0  0  0  0  0  0  0  0  0  0
    2.6559   -1.2840    0.0000 C   0  0  0  0  0  0  0  0  0  0  0  0
    2.6559   -2.7840    0.0000 C   0  0  0  0  0  0  0  0  0  0  0  0
    1.3569   -3.5340    0.0000 C   0  0  0  0  0  0  0  0  0  0  0  0
    4.7050    0.7650    0.0000 C   0  0  0  0  0  0  0  0  0  0  0  0
    3.9550    2.0641    0.0000 O   0  0  0  0  0  0  0  0  0  0  0  0
    6.2050    0.7650    0.0000 N   0  0  0  0  0  0  0  0  0  0  0  0
    6.9550   -0.5340    0.0000 C   0  0  0  0  0  0  0  0  0  0  0  0
    8.4550   -0.5340    0.0000 O   0  0  0  0  0  0  0  0  0  0  0  0
    6.2050   -1.8331    0.0000 N   0  0  0  0  0  0  0  0  0  0  0  0
    4.7050   -1.8331    0.0000 C   0  0  0  0  0  0  0  0  0  0  0  0
    3.9550   -3.1321    0.0000 O   0  0  0  0  0  0  0  0  0  0  0  0
  1  2  1  0  0  0  0
  2  3  1  0  0  0  0
  2  4  1  0  0  0  0
  4  5  1  0  0  0  0
  5  6  1  0  0  0  0
  9  5  1  0  0  0  0
  5 15  1  0  0  0  0
  6  7  1  0  0  0  0
  7  8  2  0  0  0  0
  9 10  2  0  0  0  0
 11  9  1  0  0  0  0
 12 11  1  0  0  0  0
 12 13  2  0  0  0  0
 14 12  1  0  0  0  0
 15 14  1  0  0  0  0
 15 16  2  0  0  0  0
M  END
> <Inchi_key>
UZVHFVZFNXBMQJ-UHFFFAOYSA-N

> <Source>
Mulliner

> <ID>
HT0334

> <H_MFHB>
0

> <CAS>


> <Cholestasis>


> <Name>
butalbital

> <Class>
0


$$$$