
  -INDIGO-08031710012D

 30 29  0  0  0  0  0  0  0  0999 V2000
    2.3182    4.0152    0.0000 C   0  0  0  0  0  0  0  0  0  0  0  0
    3.0682    2.7162    0.0000 C   0  0  0  0  0  0  0  0  0  0  0  0
    4.5681    2.7162    0.0000 C   0  0  0  0  0  0  0  0  0  0  0  0
    2.3182    1.4171    0.0000 N   0  0  0  0  0  0  0  0  0  0  0  0
    0.8693    1.8054    0.0000 C   0  0  0  0  0  0  0  0  0  0  0  0
   -0.1914    0.7447    0.0000 C   0  0  0  0  0  0  0  0  0  0  0  0
    0.4811    3.2543    0.0000 C   0  0  0  0  0  0  0  0  0  0  0  0
    3.0682    0.1182    0.0000 C   0  0  0  0  0  0  0  0  0  0  0  0
    2.3182   -1.1809    0.0000 N   0  0  0  0  0  0  0  0  0  0  0  0
    0.8693   -1.5692    0.0000 C   0  0  0  0  0  0  0  0  0  0  0  0
    0.4811   -3.0181    0.0000 C   0  0  0  0  0  0  0  0  0  0  0  0
   -0.1914   -0.5085    0.0000 C   0  0  0  0  0  0  0  0  0  0  0  0
    3.0682   -2.4800    0.0000 C   0  0  0  0  0  0  0  0  0  0  0  0
    4.5681   -2.4800    0.0000 C   0  0  0  0  0  0  0  0  0  0  0  0
    2.3182   -3.7790    0.0000 C   0  0  0  0  0  0  0  0  0  0  0  0
    4.5681    0.1182    0.0000 C   0  0  0  0  0  0  0  0  0  0  0  0
    5.3181    1.4171    0.0000 O   0  0  0  0  0  0  0  0  0  0  0  0
    5.3181   -1.1809    0.0000 O   0  0  0  0  0  0  0  0  0  0  0  0
    6.8183   -1.1809    0.0000 C   0  0  0  0  0  0  0  0  0  0  0  0
    7.5682   -2.4800    0.0000 C   0  0  0  0  0  0  0  0  0  0  0  0
    6.8183   -3.7790    0.0000 O   0  0  0  0  0  0  0  0  0  0  0  0
    9.0682   -2.4800    0.0000 C   0  0  0  0  0  0  0  0  0  0  0  0
    9.8181   -3.7790    0.0000 O   0  0  0  0  0  0  0  0  0  0  0  0
    9.8181   -1.1809    0.0000 C   0  0  0  0  0  0  0  0  0  0  0  0
    9.0682    0.1182    0.0000 O   0  0  0  0  0  0  0  0  0  0  0  0
   11.3183   -1.1809    0.0000 C   0  0  0  0  0  0  0  0  0  0  0  0
   12.0683   -2.4800    0.0000 O   0  0  0  0  0  0  0  0  0  0  0  0
   12.0683    0.1182    0.0000 C   0  0  0  0  0  0  0  0  0  0  0  0
   13.5682    0.1182    0.0000 O   0  0  0  0  0  0  0  0  0  0  0  0
   11.3183    1.4171    0.0000 O   0  0  0  0  0  0  0  0  0  0  0  0
  1  2  1  0  0  0  0
  2  3  1  0  0  0  0
  2  4  1  0  0  0  0
  4  5  1  0  0  0  0
  4  8  1  0  0  0  0
  5  6  1  0  0  0  0
  5  7  1  0  0  0  0
  8  9  1  0  0  0  0
  8 16  1  0  0  0  0
  9 10  1  0  0  0  0
  9 13  1  0  0  0  0
 10 11  1  0  0  0  0
 10 12  1  0  0  0  0
 13 14  1  0  0  0  0
 13 15  1  0  0  0  0
 16 17  2  0  0  0  0
 16 18  1  0  0  0  0
 18 19  1  0  0  0  0
 19 20  1  0  0  0  0
 20 21  1  0  0  0  0
 20 22  1  0  0  0  0
 22 23  1  0  0  0  0
 22 24  1  0  0  0  0
 24 25  1  0  0  0  0
 24 26  1  0  0  0  0
 26 27  1  0  0  0  0
 26 28  1  0  0  0  0
 28 29  2  0  0  0  0
 28 30  1  0  0  0  0
M  END
> <Inchi_key>
RVSTWRHIGKXTLG-UHFFFAOYSA-N

> <Source>
Mulliner

> <ID>
HT3824

> <H_MFHB>
0

> <CAS>


> <Cholestasis>


> <Name>


> <Class>
0

$$$$