
  -INDIGO-08031710012D

 21 23  0  0  0  0  0  0  0  0999 V2000
   10.9286   -6.3096    0.0000 C   0  0  0  0  0  0  0  0  0  0  0  0
   10.1786   -5.0106    0.0000 N   0  0  0  0  0  0  0  0  0  0  0  0
   10.9286   -3.7115    0.0000 C   0  0  0  0  0  0  0  0  0  0  0  0
    8.6787   -5.0106    0.0000 C   0  0  0  0  0  0  0  0  0  0  0  0
    7.9285   -3.7115    0.0000 C   0  0  0  0  0  0  0  0  0  0  0  0
    6.4286   -3.7115    0.0000 C   0  0  0  0  0  0  0  0  0  0  0  0
    5.6786   -2.4124    0.0000 C   0  0  0  0  0  0  0  0  0  0  0  0
    6.4286   -1.1135    0.0000 C   0  0  0  0  0  0  0  0  0  0  0  0
    7.9285   -1.1135    0.0000 C   0  0  0  0  0  0  0  0  0  0  0  0
    8.6787    0.1856    0.0000 C   0  0  0  0  0  0  0  0  0  0  0  0
    7.9285    1.4846    0.0000 C   0  0  0  0  0  0  0  0  0  0  0  0
    6.4286    1.4846    0.0000 C   0  0  0  0  0  0  0  0  0  0  0  0
    5.6786    0.1856    0.0000 C   0  0  0  0  0  0  0  0  0  0  0  0
    4.1787    0.1856    0.0000 S   0  0  0  0  0  0  0  0  0  0  0  0
    3.4285   -1.1135    0.0000 C   0  0  0  0  0  0  0  0  0  0  0  0
    1.9286   -1.1135    0.0000 C   0  0  0  0  0  0  0  0  0  0  0  0
    1.1786   -2.4124    0.0000 C   0  0  0  0  0  0  0  0  0  0  0  0
    1.9286   -3.7115    0.0000 C   0  0  0  0  0  0  0  0  0  0  0  0
    1.1786   -5.0106    0.0000 Cl  0  0  0  0  0  0  0  0  0  0  0  0
    3.4285   -3.7115    0.0000 C   0  0  0  0  0  0  0  0  0  0  0  0
    4.1787   -2.4124    0.0000 C   0  0  0  0  0  0  0  0  0  0  0  0
  1  2  1  0  0  0  0
  2  3  1  0  0  0  0
  2  4  1  0  0  0  0
  4  5  1  0  0  0  0
  5  6  1  0  0  0  0
  6  7  2  0  0  0  0
  8  7  1  0  0  0  0
  7 21  1  0  0  0  0
  9  8  1  0  0  0  0
  8 13  2  0  0  0  0
 10  9  2  0  0  0  0
 11 10  1  0  0  0  0
 12 11  2  0  0  0  0
 13 12  1  0  0  0  0
 14 13  1  0  0  0  0
 15 14  1  0  0  0  0
 16 15  1  0  0  0  0
 15 21  2  0  0  0  0
 17 16  2  0  0  0  0
 18 17  1  0  0  0  0
 18 19  1  0  0  0  0
 20 18  2  0  0  0  0
 21 20  1  0  0  0  0
M  END
> <Inchi_key>
WSPOMRSOLSGNFJ-VGOFMYFVSA-N

> <Source>
Mulliner

> <ID>
HT0470

> <H_MFHB>
0

> <CAS>


> <Cholestasis>


> <Name>
chlorprothixene

> <Class>
0

$$$$