

  -INDIGO-08031710012D

 13 14  0  0  0  0  0  0  0  0999 V2000
    1.0385    0.5996    0.0000 C   0  0  0  0  0  0  0  0  0  0  0  0
    0.2886   -0.6995    0.0000 C   0  0  0  0  0  0  0  0  0  0  0  0
   -1.2114   -0.6995    0.0000 N   0  0  0  0  0  0  0  0  0  0  0  0
   -1.9615   -1.9985    0.0000 C   0  0  0  0  0  0  0  0  0  0  0  0
   -1.2114   -3.2976    0.0000 C   0  0  0  0  0  0  0  0  0  0  0  0
    0.2886   -3.2976    0.0000 O   0  0  0  0  0  0  0  0  0  0  0  0
    1.0385   -1.9985    0.0000 C   0  0  0  0  0  0  0  0  0  0  0  0
    2.5385   -1.9985    0.0000 C   0  0  0  0  0  0  0  0  0  0  0  0
    3.2886   -3.2976    0.0000 C   0  0  0  0  0  0  0  0  0  0  0  0
    4.7886   -3.2976    0.0000 C   0  0  0  0  0  0  0  0  0  0  0  0
    5.5385   -1.9985    0.0000 C   0  0  0  0  0  0  0  0  0  0  0  0
    4.7886   -0.6995    0.0000 C   0  0  0  0  0  0  0  0  0  0  0  0
    3.2886   -0.6995    0.0000 C   0  0  0  0  0  0  0  0  0  0  0  0
  1  2  1  0  0  0  0
  3  2  1  0  0  0  0
  2  7  1  0  0  0  0
  4  3  1  0  0  0  0
  5  4  1  0  0  0  0
  6  5  1  0  0  0  0
  7  6  1  0  0  0  0
  7  8  1  0  0  0  0
  9  8  2  0  0  0  0
  8 13  1  0  0  0  0
 10  9  1  0  0  0  0
 11 10  2  0  0  0  0
 12 11  1  0  0  0  0
 13 12  2  0  0  0  0
M  END
> <Inchi_key>
OOBHFESNSZDWIU-UHFFFAOYSA-N

> <Source>
Mulliner

> <ID>
HT1649

> <H_MFHB>
0

> <CAS>


> <Cholestasis>


> <Name>
phenmetrazine

> <Class>
0


$$$$