

  -INDIGO-08031710012D

 24 24  0  0  0  0  0  0  0  0999 V2000
    6.2896   10.8939    0.0000 C   0  0  0  0  0  0  0  0  0  0  0  0
    7.0396    9.5949    0.0000 C   0  0  0  0  0  0  0  0  0  0  0  0
    8.5396    9.5949    0.0000 O   0  0  0  0  0  0  0  0  0  0  0  0
    6.2896    8.2959    0.0000 O   0  0  0  0  0  0  0  0  0  0  0  0
    4.7896    8.2959    0.0000 C   0  0  0  0  0  0  0  0  0  0  0  0
    4.0395    6.9968    0.0000 C   0  0  0  0  0  0  0  0  0  0  0  0
    2.5395    6.9968    0.0000 C   0  0  0  0  0  0  0  0  0  0  0  0
    1.7897    5.6978    0.0000 C   0  0  0  0  0  0  0  0  0  0  0  0
    1.7897    8.2959    0.0000 C   0  0  0  0  0  0  0  0  0  0  0  0
    0.2895    8.2959    0.0000 C   0  0  0  0  0  0  0  0  0  0  0  0
   -0.4604    9.5949    0.0000 C   0  0  0  0  0  0  0  0  0  0  0  0
   -1.9603    9.5949    0.0000 C   0  0  0  0  0  0  0  0  0  0  0  0
   -2.7104   10.8939    0.0000 C   0  0  0  0  0  0  0  0  0  0  0  0
   -2.7104    8.2959    0.0000 C   0  0  0  0  0  0  0  0  0  0  0  0
   -4.2104    8.2959    0.0000 C   0  0  0  0  0  0  0  0  0  0  0  0
   -4.9605    6.9968    0.0000 C   0  0  0  0  0  0  0  0  0  0  0  0
   -4.2104    5.6978    0.0000 C   0  0  0  0  0  0  0  0  0  0  0  0
   -2.7104    5.6978    0.0000 C   0  0  0  0  0  0  0  0  0  0  0  0
   -4.9605    4.3988    0.0000 C   0  0  0  0  0  0  0  0  0  0  0  0
   -6.4604    4.3988    0.0000 C   0  0  0  0  0  0  0  0  0  0  0  0
   -7.2105    5.6978    0.0000 C   0  0  0  0  0  0  0  0  0  0  0  0
   -6.4604    6.9968    0.0000 C   0  0  0  0  0  0  0  0  0  0  0  0
   -7.7594    7.7468    0.0000 C   0  0  0  0  0  0  0  0  0  0  0  0
   -6.4604    8.4968    0.0000 C   0  0  0  0  0  0  0  0  0  0  0  0
  1  2  1  0  0  0  0
  2  3  2  0  0  0  0
  2  4  1  0  0  0  0
  4  5  1  0  0  0  0
  5  6  1  0  0  0  0
  6  7  2  0  0  0  0
  7  8  1  0  0  0  0
  7  9  1  0  0  0  0
  9 10  2  0  0  0  0
 10 11  1  0  0  0  0
 11 12  2  0  0  0  0
 12 13  1  0  0  0  0
 12 14  1  0  0  0  0
 14 15  2  0  0  0  0
 15 16  1  0  0  0  0
 17 16  2  0  0  0  0
 16 22  1  0  0  0  0
 17 18  1  0  0  0  0
 19 17  1  0  0  0  0
 20 19  1  0  0  0  0
 21 20  1  0  0  0  0
 22 21  1  0  0  0  0
 22 23  1  0  0  0  0
 22 24  1  0  0  0  0
M  END
> <Inchi_key>
QGNJRVVDBSJHIZ-VEKRBDQFSA-N

> <Source>
Mulliner

> <ID>
HT3506

> <H_MFHB>
0

> <CAS>
127-47-9

> <Cholestasis>


> <Name>


> <Class>
0


$$$$