
  -INDIGO-08031710012D

 24 27  0  0  0  0  0  0  0  0999 V2000
   12.8575    3.3959    0.0000 C   0  0  0  0  0  0  0  0  0  0  0  0
   11.5532    2.6552    0.0000 C   0  0  0  0  0  0  0  0  0  0  0  0
   10.2594    3.4146    0.0000 N   0  0  0  0  0  0  0  0  0  0  0  0
   10.2703    4.9145    0.0000 C   0  0  0  0  0  0  0  0  0  0  0  0
   11.5745    5.6552    0.0000 C   0  0  0  0  0  0  0  0  0  0  0  0
    8.9552    2.6738    0.0000 C   0  0  0  0  0  0  0  0  0  0  0  0
    8.9444    1.1739    0.0000 O   0  0  0  0  0  0  0  0  0  0  0  0
    7.6616    3.4331    0.0000 C   0  0  0  0  0  0  0  0  0  0  0  0
    7.6722    4.9331    0.0000 C   0  0  0  0  0  0  0  0  0  0  0  0
    6.3786    5.6923    0.0000 N   0  0  0  0  0  0  0  0  0  0  0  0
    6.3776    7.1923    0.0000 C   0  0  0  0  0  0  0  0  0  0  0  0
    5.0666    4.9184    0.0000 C   0  0  0  0  0  0  0  0  0  0  0  0
    3.7923    5.6456    0.0000 C   0  0  0  0  0  0  0  0  0  0  0  0
    2.5271    4.9085    0.0000 C   0  0  0  0  0  0  0  0  0  0  0  0
    1.1072    5.3838    0.0000 C   0  0  0  0  0  0  0  0  0  0  0  0
    0.1909    3.7584    0.0000 N   0  0  0  0  0  0  0  0  0  0  0  0
    1.2680    2.7017    0.0000 C   0  0  0  0  0  0  0  0  0  0  0  0
    1.2787    1.2299    0.0000 C   0  0  0  0  0  0  0  0  0  0  0  0
    2.5561    0.5038    0.0000 C   0  0  0  0  0  0  0  0  0  0  0  0
    3.8151    1.2481    0.0000 C   0  0  0  0  0  0  0  0  0  0  0  0
    3.8103    2.7104    0.0000 C   0  0  0  0  0  0  0  0  0  0  0  0
    5.0714    3.4561    0.0000 C   0  0  0  0  0  0  0  0  0  0  0  0
    6.3571    2.6924    0.0000 C   0  0  0  0  0  0  0  0  0  0  0  0
    2.5369    3.4399    0.0000 C   0  0  0  0  0  0  0  0  0  0  0  0
  1  2  1  0  0  0  0
  2  3  1  0  0  0  0
  3  4  1  0  0  0  0
  3  6  1  0  0  0  0
  4  5  1  0  0  0  0
  6  7  2  0  0  0  0
  6  8  1  0  0  0  0
  9  8  1  0  0  0  0
  8 23  1  0  0  0  0
 10  9  1  0  0  0  0
 10 11  1  0  0  0  0
 12 10  1  0  0  0  0
 13 12  1  0  0  0  0
 12 22  1  0  0  0  0
 14 13  1  0  0  0  0
 15 14  2  0  0  0  0
 14 24  1  0  0  0  0
 16 15  1  0  0  0  0
 17 16  1  0  0  0  0
 17 18  1  0  0  0  0
 24 17  2  0  0  0  0
 18 19  2  0  0  0  0
 19 20  1  0  0  0  0
 20 21  2  0  0  0  0
 22 21  1  0  0  0  0
 21 24  1  0  0  0  0
 23 22  2  0  0  0  0
M  END
> <Inchi_key>
VAYOSLLFUXYJDT-UHFFFAOYSA-N

> <Source>
Mulliner

> <ID>
HT3474

> <H_MFHB>
0

> <CAS>


> <Cholestasis>


> <Name>


> <Class>
0

$$$$