

  -INDIGO-08031710012D

 29 31  0  0  0  0  0  0  0  0999 V2000
   17.3793   -0.0001    0.0000 C   0  0  0  0  0  0  0  0  0  0  0  0
   15.8792   -0.0001    0.0000 C   0  0  0  0  0  0  0  0  0  0  0  0
   15.1293    1.2990    0.0000 O   0  0  0  0  0  0  0  0  0  0  0  0
   13.6292    1.2990    0.0000 C   0  0  0  0  0  0  0  0  0  0  0  0
   12.8793   -0.0001    0.0000 C   0  0  0  0  0  0  0  0  0  0  0  0
   11.3792   -0.0001    0.0000 C   0  0  0  0  0  0  0  0  0  0  0  0
   10.6293    1.2990    0.0000 C   0  0  0  0  0  0  0  0  0  0  0  0
    9.1293    1.2990    0.0000 C   0  0  0  0  0  0  0  0  0  0  0  0
    8.3793   -0.0001    0.0000 C   0  0  0  0  0  0  0  0  0  0  0  0
    9.1293   -1.2989    0.0000 N   0  0  0  0  0  0  0  0  0  0  0  0
    8.3793   -2.5981    0.0000 C   0  0  0  0  0  0  0  0  0  0  0  0
    6.8793   -2.5981    0.0000 C   0  0  0  0  0  0  0  0  0  0  0  0
    6.1294   -1.2989    0.0000 C   0  0  0  0  0  0  0  0  0  0  0  0
    4.6293   -1.2989    0.0000 C   0  0  0  0  0  0  0  0  0  0  0  0
    3.8794   -0.0001    0.0000 C   0  0  0  0  0  0  0  0  0  0  0  0
    2.3793   -0.0001    0.0000 O   0  0  0  0  0  0  0  0  0  0  0  0
    1.6294   -1.2989    0.0000 C   0  0  0  0  0  0  0  0  0  0  0  0
    0.1293   -1.2989    0.0000 C   0  0  0  0  0  0  0  0  0  0  0  0
    4.6293    1.2990    0.0000 C   0  0  0  0  0  0  0  0  0  0  0  0
    3.8794    2.5981    0.0000 O   0  0  0  0  0  0  0  0  0  0  0  0
    4.6293    3.8972    0.0000 C   0  0  0  0  0  0  0  0  0  0  0  0
    3.8794    5.1962    0.0000 C   0  0  0  0  0  0  0  0  0  0  0  0
    6.1294    1.2990    0.0000 C   0  0  0  0  0  0  0  0  0  0  0  0
    6.8793   -0.0001    0.0000 C   0  0  0  0  0  0  0  0  0  0  0  0
   11.3792    2.5981    0.0000 C   0  0  0  0  0  0  0  0  0  0  0  0
   12.8793    2.5981    0.0000 C   0  0  0  0  0  0  0  0  0  0  0  0
   13.6292    3.8972    0.0000 O   0  0  0  0  0  0  0  0  0  0  0  0
   12.8793    5.1962    0.0000 C   0  0  0  0  0  0  0  0  0  0  0  0
   13.6292    6.4952    0.0000 C   0  0  0  0  0  0  0  0  0  0  0  0
  1  2  1  0  0  0  0
  2  3  1  0  0  0  0
  3  4  1  0  0  0  0
  5  4  2  0  0  0  0
  4 26  1  0  0  0  0
  6  5  1  0  0  0  0
  7  6  2  0  0  0  0
  7  8  1  0  0  0  0
 25  7  1  0  0  0  0
  8  9  2  0  0  0  0
 10  9  1  0  0  0  0
  9 24  1  0  0  0  0
 11 10  1  0  0  0  0
 12 11  1  0  0  0  0
 13 12  1  0  0  0  0
 14 13  2  0  0  0  0
 13 24  1  0  0  0  0
 15 14  1  0  0  0  0
 15 16  1  0  0  0  0
 19 15  2  0  0  0  0
 16 17  1  0  0  0  0
 17 18  1  0  0  0  0
 19 20  1  0  0  0  0
 23 19  1  0  0  0  0
 20 21  1  0  0  0  0
 21 22  1  0  0  0  0
 24 23  2  0  0  0  0
 26 25  2  0  0  0  0
 26 27  1  0  0  0  0
 27 28  1  0  0  0  0
 28 29  1  0  0  0  0
M  END
> <Inchi_key>
OMFNSKIUKYOYRG-MOSHPQCFSA-N

> <Source>
Mulliner

> <ID>
HT0729

> <H_MFHB>
0

> <CAS>


> <Cholestasis>


> <Name>
drotaverine

> <Class>
0


$$$$