

  -INDIGO-08031710012D

 42 46  0  0  0  0  0  0  0  0999 V2000
   -0.4468    4.1561    0.0000 C   0  0  0  0  0  0  0  0  0  0  0  0
    0.3015    2.8439    0.0000 C   0  0  0  0  0  0  0  0  0  0  0  0
   -1.3174    2.9954    0.0000 C   0  0  0  0  0  0  0  0  0  0  0  0
   -2.4662    2.0319    0.0000 C   0  0  0  0  0  0  0  0  0  0  0  0
   -3.8762    2.5457    0.0000 C   0  0  0  0  0  0  0  0  0  0  0  0
   -1.1246    4.1601    0.0000 C   0  0  0  0  0  0  0  0  0  0  0  0
    0.7781    3.3405    0.0000 C   0  0  0  0  0  0  0  0  0  0  0  0
    1.3637    2.0787    0.0000 C   0  0  0  0  0  0  0  0  0  0  0  0
    2.7569    1.6544    0.0000 N   0  0  0  0  0  0  0  0  0  0  0  0
    2.7441    0.1784    0.0000 C   0  0  0  0  0  0  0  0  0  0  0  0
    3.6168   -0.8320    0.0000 C   0  0  0  0  0  0  0  0  0  0  0  0
    4.5770    0.1111    0.0000 C   0  0  0  0  0  0  0  0  0  0  0  0
    4.6773    1.5701    0.0000 N   0  0  0  0  0  0  0  0  0  0  0  0
    6.1163    1.8998    0.0000 C   0  0  0  0  0  0  0  0  0  0  0  0
    6.8930    3.0005    0.0000 C   0  0  0  0  0  0  0  0  0  0  0  0
    5.6747    3.5440    0.0000 C   0  0  0  0  0  0  0  0  0  0  0  0
    4.2682    3.0908    0.0000 N   0  0  0  0  0  0  0  0  0  0  0  0
    3.4569    4.3005    0.0000 C   0  0  0  0  0  0  0  0  0  0  0  0
    2.1066    4.5711    0.0000 C   0  0  0  0  0  0  0  0  0  0  0  0
    0.8570    4.3564    0.0000 C   0  0  0  0  0  0  0  0  0  0  0  0
   -0.3966    5.3809    0.0000 N   0  0  0  0  0  0  0  0  0  0  0  0
    4.2591    5.5084    0.0000 C   0  0  0  0  0  0  0  0  0  0  0  0
    3.7650    6.9257    0.0000 C   0  0  0  0  0  0  0  0  0  0  0  0
    5.7393    5.0270    0.0000 C   0  0  0  0  0  0  0  0  0  0  0  0
    6.9689    5.8687    0.0000 C   0  0  0  0  0  0  0  0  0  0  0  0
    6.8718    7.3654    0.0000 C   0  0  0  0  0  0  0  0  0  0  0  0
    8.1198    8.1978    0.0000 C   0  0  0  0  0  0  0  0  0  0  0  0
    8.0229    9.6947    0.0000 O   0  0  0  0  0  0  0  0  0  0  0  0
    9.4647    7.5334    0.0000 O   0  0  0  0  0  0  0  0  0  0  0  0
    6.9271    0.6723    0.0000 C   0  0  0  0  0  0  0  0  0  0  0  0
    5.9202   -0.5054    0.0000 C   0  0  0  0  0  0  0  0  0  0  0  0
    6.2423   -1.9690    0.0000 C   0  0  0  0  0  0  0  0  0  0  0  0
    8.4263    0.5779    0.0000 C   0  0  0  0  0  0  0  0  0  0  0  0
    9.0903   -0.7666    0.0000 C   0  0  0  0  0  0  0  0  0  0  0  0
   10.5873   -0.8640    0.0000 C   0  0  0  0  0  0  0  0  0  0  0  0
   11.2516   -2.2088    0.0000 O   0  0  0  0  0  0  0  0  0  0  0  0
   11.4199    0.3839    0.0000 O   0  0  0  0  0  0  0  0  0  0  0  0
    1.3483   -0.3240    0.0000 C   0  0  0  0  0  0  0  0  0  0  0  0
    0.9018   -1.7485    0.0000 C   0  0  0  0  0  0  0  0  0  0  0  0
   -0.5593   -2.0876    0.0000 C   0  0  0  0  0  0  0  0  0  0  0  0
    0.4530    0.9466    0.0000 C   0  0  0  0  0  0  0  0  0  0  0  0
   -1.0516    0.9833    0.0000 C   0  0  0  0  0  0  0  0  0  0  0  0
  1  2  1  0  0  0  0
  3  2  2  0  0  0  0
  2 20  1  0  0  0  0
  3  4  1  0  0  0  0
  6  3  1  0  0  0  0
  4  5  2  0  0  0  0
  6  7  1  0  0  0  0
 21  6  2  0  0  0  0
  7  8  2  0  0  0  0
  9  8  1  0  0  0  0
  8 41  1  0  0  0  0
 10  9  1  0  0  0  0
 10 11  2  0  0  0  0
 38 10  1  0  0  0  0
 11 12  1  0  0  0  0
 13 12  1  0  0  0  0
 12 31  2  0  0  0  0
 14 13  1  0  0  0  0
 14 15  1  0  0  0  0
 30 14  2  0  0  0  0
 15 16  2  0  0  0  0
 17 16  1  0  0  0  0
 16 24  1  0  0  0  0
 18 17  2  0  0  0  0
 18 19  1  0  0  0  0
 22 18  1  0  0  0  0
 19 20  2  0  0  0  0
 20 21  1  0  0  0  0
 22 23  1  0  0  0  0
 24 22  2  0  0  0  0
 24 25  1  0  0  0  0
 25 26  1  0  0  0  0
 26 27  1  0  0  0  0
 27 28  2  0  0  0  0
 27 29  1  0  0  0  0
 31 30  1  0  0  0  0
 30 33  1  0  0  0  0
 31 32  1  0  0  0  0
 33 34  1  0  0  0  0
 34 35  1  0  0  0  0
 35 36  2  0  0  0  0
 35 37  1  0  0  0  0
 38 39  1  0  0  0  0
 41 38  2  0  0  0  0
 39 40  2  0  0  0  0
 41 42  1  0  0  0  0
M  END
> <Inchi_key>
OXTIQTUKEUGAPP-ZQXAPAPSSA-N

> <Source>
Mulliner

> <ID>
HT1022

> <H_MFHB>
0

> <CAS>


> <Cholestasis>


> <Name>
hemin

> <Class>
0


$$$$