
  -INDIGO-08031710012D

 16 16  0  0  0  0  0  0  0  0999 V2000
    8.5828    1.7947    0.0000 C   0  0  0  0  0  0  0  0  0  0  0  0
    7.8327    3.0938    0.0000 C   0  0  0  0  0  0  0  0  0  0  0  0
    7.0828    4.3928    0.0000 C   0  0  0  0  0  0  0  0  0  0  0  0
    9.1318    3.8438    0.0000 C   0  0  0  0  0  0  0  0  0  0  0  0
    6.5338    2.3438    0.0000 N   0  0  0  0  0  0  0  0  0  0  0  0
    5.2346    3.0938    0.0000 C   0  0  0  0  0  0  0  0  0  0  0  0
    3.9357    2.3438    0.0000 C   0  0  0  0  0  0  0  0  0  0  0  0
    3.9357    0.8438    0.0000 O   0  0  0  0  0  0  0  0  0  0  0  0
    2.6367    3.0937    0.0000 C   0  0  0  0  0  0  0  0  0  0  0  0
    2.6367    4.5938    0.0000 C   0  0  0  0  0  0  0  0  0  0  0  0
    1.3376    5.3438    0.0000 C   0  0  0  0  0  0  0  0  0  0  0  0
    1.3376    6.8438    0.0000 O   0  0  0  0  0  0  0  0  0  0  0  0
    0.0386    4.5938    0.0000 C   0  0  0  0  0  0  0  0  0  0  0  0
    0.0386    3.0938    0.0000 C   0  0  0  0  0  0  0  0  0  0  0  0
   -1.2605    2.3438    0.0000 O   0  0  0  0  0  0  0  0  0  0  0  0
    1.3376    2.3438    0.0000 C   0  0  0  0  0  0  0  0  0  0  0  0
  1  2  1  0  0  0  0
  2  3  1  0  0  0  0
  2  4  1  0  0  0  0
  2  5  1  0  0  0  0
  5  6  1  0  0  0  0
  6  7  1  0  0  0  0
  7  8  1  0  0  0  0
  7  9  1  0  0  0  0
 10  9  2  0  0  0  0
  9 16  1  0  0  0  0
 11 10  1  0  0  0  0
 11 12  1  0  0  0  0
 13 11  2  0  0  0  0
 14 13  1  0  0  0  0
 14 15  1  0  0  0  0
 16 14  2  0  0  0  0
M  END
> <Inchi_key>
XWTYSIMOBUGWOL-UHFFFAOYSA-N

> <Source>
Mulliner , Kotsampasakou

> <ID>
EK0512;HT2009

> <H_MFHB>
0

> <CAS>


> <Cholestasis>
0

> <Name>
terbutaline sulfate;terbutaline

> <Class>
0

$$$$