
  -INDIGO-08031710012D

 19 21  0  0  0  0  0  0  0  0999 V2000
   10.3804   -2.7814    0.0000 N   0  0  0  0  0  0  0  0  0  0  0  0
    9.0814   -2.0314    0.0000 C   0  0  0  0  0  0  0  0  0  0  0  0
    9.0814   -0.5314    0.0000 N   0  0  0  0  0  0  0  0  0  0  0  0
    7.7823    0.2186    0.0000 C   0  0  0  0  0  0  0  0  0  0  0  0
    6.4833   -0.5314    0.0000 N   0  0  0  0  0  0  0  0  0  0  0  0
    6.4833   -2.0314    0.0000 C   0  0  0  0  0  0  0  0  0  0  0  0
    7.7823   -2.7814    0.0000 C   0  0  0  0  0  0  0  0  0  0  0  0
    7.4705   -4.2487    0.0000 N   0  0  0  0  0  0  0  0  0  0  0  0
    5.9787   -4.4054    0.0000 C   0  0  0  0  0  0  0  0  0  0  0  0
    5.3686   -3.0351    0.0000 N   0  0  0  0  0  0  0  0  0  0  0  0
    3.9013   -2.7233    0.0000 C   0  0  0  0  0  0  0  0  0  0  0  0
    3.2914   -1.3529    0.0000 O   0  0  0  0  0  0  0  0  0  0  0  0
    1.7995   -1.5097    0.0000 C   0  0  0  0  0  0  0  0  0  0  0  0
    0.7959   -0.3950    0.0000 C   0  0  0  0  0  0  0  0  0  0  0  0
    1.2593    1.0316    0.0000 O   0  0  0  0  0  0  0  0  0  0  0  0
    1.4876   -2.9770    0.0000 C   0  0  0  0  0  0  0  0  0  0  0  0
    0.1173   -3.5871    0.0000 O   0  0  0  0  0  0  0  0  0  0  0  0
    2.7866   -3.7270    0.0000 C   0  0  0  0  0  0  0  0  0  0  0  0
    2.9435   -5.2187    0.0000 O   0  0  0  0  0  0  0  0  0  0  0  0
  1  2  1  0  0  0  0
  3  2  2  0  0  0  0
  2  7  1  0  0  0  0
  4  3  1  0  0  0  0
  5  4  2  0  0  0  0
  6  5  1  0  0  0  0
  6  7  2  0  0  0  0
 10  6  1  0  0  0  0
  7  8  1  0  0  0  0
  8  9  2  0  0  0  0
  9 10  1  0  0  0  0
 10 11  1  0  0  0  0
 12 11  1  0  0  0  0
 11 18  1  0  0  0  0
 13 12  1  0  0  0  0
 13 14  1  0  0  0  0
 16 13  1  0  0  0  0
 14 15  1  0  0  0  0
 16 17  1  0  0  0  0
 18 16  1  0  0  0  0
 18 19  1  0  0  0  0
M  END
> <Inchi_key>
OIRDTQYFTABQOQ-UHFFFAOYSA-N

> <Source>
Mulliner

> <ID>
HT0077

> <H_MFHB>
0

> <CAS>


> <Cholestasis>


> <Name>
adenosine;vidarabine

> <Class>
0

$$$$