
  -INDIGO-08031710012D

 18 19  0  0  0  0  0  0  0  0999 V2000
   11.0513    4.2553    0.0000 C   0  0  0  0  0  0  0  0  0  0  0  0
   10.1831    5.4785    0.0000 C   0  0  0  0  0  0  0  0  0  0  0  0
    8.6898    5.3383    0.0000 C   0  0  0  0  0  0  0  0  0  0  0  0
    7.9252    4.0476    0.0000 N   0  0  0  0  0  0  0  0  0  0  0  0
    6.4618    4.3757    0.0000 N   0  0  0  0  0  0  0  0  0  0  0  0
    6.3213    5.8691    0.0000 C   0  0  0  0  0  0  0  0  0  0  0  0
    5.0307    6.6334    0.0000 N   0  0  0  0  0  0  0  0  0  0  0  0
    3.7235    5.8979    0.0000 S   0  0  0  0  0  0  0  0  0  0  0  0
    4.4591    4.5906    0.0000 O   0  0  0  0  0  0  0  0  0  0  0  0
    2.9879    7.2051    0.0000 O   0  0  0  0  0  0  0  0  0  0  0  0
    2.4162    5.1623    0.0000 C   0  0  0  0  0  0  0  0  0  0  0  0
    2.3995    3.6624    0.0000 C   0  0  0  0  0  0  0  0  0  0  0  0
    1.0924    2.9268    0.0000 C   0  0  0  0  0  0  0  0  0  0  0  0
   -0.1983    3.6911    0.0000 C   0  0  0  0  0  0  0  0  0  0  0  0
   -1.5056    2.9556    0.0000 N   0  0  0  0  0  0  0  0  0  0  0  0
   -0.1818    5.1910    0.0000 C   0  0  0  0  0  0  0  0  0  0  0  0
    1.1255    5.9266    0.0000 C   0  0  0  0  0  0  0  0  0  0  0  0
    7.6984    6.4640    0.0000 S   0  0  0  0  0  0  0  0  0  0  0  0
  1  2  1  0  0  0  0
  2  3  1  0  0  0  0
  4  3  2  0  0  0  0
  3 18  1  0  0  0  0
  5  4  1  0  0  0  0
  6  5  2  0  0  0  0
  6  7  1  0  0  0  0
 18  6  1  0  0  0  0
  7  8  1  0  0  0  0
  8  9  2  0  0  0  0
  8 10  2  0  0  0  0
  8 11  1  0  0  0  0
 12 11  2  0  0  0  0
 11 17  1  0  0  0  0
 13 12  1  0  0  0  0
 14 13  2  0  0  0  0
 14 15  1  0  0  0  0
 16 14  1  0  0  0  0
 17 16  2  0  0  0  0
M  END
> <Inchi_key>
SVYBEBLNQGDRHF-UHFFFAOYSA-N

> <Source>
Mulliner

> <ID>
HT1940

> <H_MFHB>
0

> <CAS>


> <Cholestasis>


> <Name>
sulfaethidole

> <Class>
0

$$$$