

  -INDIGO-08031709442D

 14 14  0  0  0  0  0  0  0  0999 V2000
    1.1642   -3.6523    0.0000 Cl  0  0  0  0  0  0  0  0  0  0  0  0
   -0.1349   -2.9023    0.0000 C   0  0  0  0  0  0  0  0  0  0  0  0
   -1.4339   -3.6523    0.0000 C   0  0  0  0  0  0  0  0  0  0  0  0
   -2.7329   -2.9023    0.0000 C   0  0  0  0  0  0  0  0  0  0  0  0
   -2.7329   -1.4023    0.0000 C   0  0  0  0  0  0  0  0  0  0  0  0
   -1.4339   -0.6523    0.0000 C   0  0  0  0  0  0  0  0  0  0  0  0
   -1.4339    0.8477    0.0000 Cl  0  0  0  0  0  0  0  0  0  0  0  0
   -0.1349   -1.4023    0.0000 C   0  0  0  0  0  0  0  0  0  0  0  0
    1.1642   -0.6523    0.0000 C   0  0  0  0  0  0  0  0  0  0  0  0
    2.4633   -1.4023    0.0000 N   0  0  0  0  0  0  0  0  0  0  0  0
    3.7624   -0.6523    0.0000 N   0  0  0  0  0  0  0  0  0  0  0  0
    5.0612   -1.4023    0.0000 C   0  0  0  0  0  0  0  0  0  0  0  0
    5.0612   -2.9023    0.0000 N   0  0  0  0  0  0  0  0  0  0  0  0
    6.3604   -0.6523    0.0000 N   0  0  0  0  0  0  0  0  0  0  0  0
  1  2  1  0  0  0  0
  3  2  2  0  0  0  0
  2  8  1  0  0  0  0
  4  3  1  0  0  0  0
  5  4  2  0  0  0  0
  6  5  1  0  0  0  0
  6  7  1  0  0  0  0
  8  6  2  0  0  0  0
  8  9  1  0  0  0  0
  9 10  2  0  0  0  0
 10 11  1  0  0  0  0
 11 12  1  0  0  0  0
 12 13  1  0  0  0  0
 12 14  2  0  0  0  0
M  END
> <Inchi_key>
WDZVGELJXXEGPV-YIXHJXPBSA-N

> <Source>
Kotsampasakou

> <ID>
EK0250

> <H_MFHB>


> <CAS>


> <Cholestasis>
0

> <Name>
guanabenz

> <Class>
0


$$$$