
  -INDIGO-08031710012D

 34 37  0  0  0  0  0  0  0  0999 V2000
   -2.5720   -7.5631    0.0000 O   0  0  0  0  0  0  0  0  0  0  0  0
   -1.2729   -6.8130    0.0000 C   0  0  0  0  0  0  0  0  0  0  0  0
    0.0261   -7.5631    0.0000 N   0  0  0  0  0  0  0  0  0  0  0  0
   -1.2729   -5.3129    0.0000 C   0  0  0  0  0  0  0  0  0  0  0  0
   -2.3874   -4.3094    0.0000 C   0  0  0  0  0  0  0  0  0  0  0  0
    0.0261   -4.5630    0.0000 N   0  0  0  0  0  0  0  0  0  0  0  0
   -1.7775   -2.9391    0.0000 N   0  0  0  0  0  0  0  0  0  0  0  0
   -3.8548   -4.6212    0.0000 C   0  0  0  0  0  0  0  0  0  0  0  0
   -0.2856   -3.0959    0.0000 C   0  0  0  0  0  0  0  0  0  0  0  0
    1.3252   -5.3129    0.0000 N   0  0  0  0  0  0  0  0  0  0  0  0
    0.7181   -1.9810    0.0000 C   0  0  0  0  0  0  0  0  0  0  0  0
    1.3252   -6.8130    0.0000 C   0  0  0  0  0  0  0  0  0  0  0  0
    0.2545   -0.5545    0.0000 C   0  0  0  0  0  0  0  0  0  0  0  0
    2.6242   -7.5631    0.0000 C   0  0  0  0  0  0  0  0  0  0  0  0
    1.2582    0.5602    0.0000 C   0  0  0  0  0  0  0  0  0  0  0  0
    3.9233   -6.8130    0.0000 C   0  0  0  0  0  0  0  0  0  0  0  0
    2.6242   -9.0630    0.0000 C   0  0  0  0  0  0  0  0  0  0  0  0
    5.2223   -7.5631    0.0000 C   0  0  0  0  0  0  0  0  0  0  0  0
    3.9233   -9.8130    0.0000 C   0  0  0  0  0  0  0  0  0  0  0  0
    1.3252   -9.8130    0.0000 O   0  0  0  0  0  0  0  0  0  0  0  0
    5.2223   -9.0630    0.0000 C   0  0  0  0  0  0  0  0  0  0  0  0
    6.5214   -6.8130    0.0000 S   0  0  0  0  0  0  0  0  0  0  0  0
    1.3252  -11.3129    0.0000 C   0  0  0  0  0  0  0  0  0  0  0  0
    5.7714   -5.5140    0.0000 O   0  0  0  0  0  0  0  0  0  0  0  0
    7.2713   -8.1120    0.0000 O   0  0  0  0  0  0  0  0  0  0  0  0
    7.8204   -6.0630    0.0000 N   0  0  0  0  0  0  0  0  0  0  0  0
    0.0261  -12.0630    0.0000 C   0  0  0  0  0  0  0  0  0  0  0  0
    9.1195   -6.8130    0.0000 C   0  0  0  0  0  0  0  0  0  0  0  0
    7.8204   -4.5630    0.0000 C   0  0  0  0  0  0  0  0  0  0  0  0
   10.4185   -6.0630    0.0000 C   0  0  0  0  0  0  0  0  0  0  0  0
    9.1195   -3.8130    0.0000 C   0  0  0  0  0  0  0  0  0  0  0  0
   10.4185   -4.5630    0.0000 N   0  0  0  0  0  0  0  0  0  0  0  0
   11.7176   -3.8130    0.0000 C   0  0  0  0  0  0  0  0  0  0  0  0
   13.0166   -4.5630    0.0000 C   0  0  0  0  0  0  0  0  0  0  0  0
  1  2  2  0  0  0  0
  3  2  1  0  0  0  0
  2  4  1  0  0  0  0
  5  4  2  0  0  0  0
  4  6  1  0  0  0  0
  7  5  1  0  0  0  0
  5  8  1  0  0  0  0
  6  9  1  0  0  0  0
  6 10  1  0  0  0  0
  9  7  2  0  0  0  0
  9 11  1  0  0  0  0
 10 12  2  0  0  0  0
 11 13  1  0  0  0  0
 12  3  1  0  0  0  0
 12 14  1  0  0  0  0
 13 15  1  0  0  0  0
 16 14  2  0  0  0  0
 14 17  1  0  0  0  0
 18 16  1  0  0  0  0
 17 19  2  0  0  0  0
 17 20  1  0  0  0  0
 21 18  2  0  0  0  0
 18 22  1  0  0  0  0
 19 21  1  0  0  0  0
 20 23  1  0  0  0  0
 22 24  2  0  0  0  0
 22 25  2  0  0  0  0
 22 26  1  0  0  0  0
 23 27  1  0  0  0  0
 28 26  1  0  0  0  0
 26 29  1  0  0  0  0
 30 28  1  0  0  0  0
 29 31  1  0  0  0  0
 32 30  1  0  0  0  0
 31 32  1  0  0  0  0
 32 33  1  0  0  0  0
 33 34  1  0  0  0  0
M  END
> <Inchi_key>
SECKRCOLJRRGGV-UHFFFAOYSA-N

> <Source>
Mulliner , Kotsampasakou

> <ID>
EK0563;HT2168

> <H_MFHB>
0

> <CAS>


> <Cholestasis>
0

> <Name>
vardenafil hydrochloride;vardenafil

> <Class>
0

$$$$