

  -INDIGO-08031710012D

 30 33  0  0  0  0  0  0  0  0999 V2000
    0.5226   -3.8690    0.0000 C   0  0  0  0  0  0  0  0  0  0  0  0
    1.9688   -3.4712    0.0000 C   0  0  0  0  0  0  0  0  0  0  0  0
    2.3473   -2.0196    0.0000 C   0  0  0  0  0  0  0  0  0  0  0  0
    3.7441   -1.4727    0.0000 O   0  0  0  0  0  0  0  0  0  0  0  0
    3.6555    0.0247    0.0000 C   0  0  0  0  0  0  0  0  0  0  0  0
    4.8149    0.9765    0.0000 C   0  0  0  0  0  0  0  0  0  0  0  0
    6.2189    0.4483    0.0000 C   0  0  0  0  0  0  0  0  0  0  0  0
    7.3783    1.4001    0.0000 N   0  0  0  0  0  0  0  0  0  0  0  0
    7.2897    2.8975    0.0000 C   0  0  0  0  0  0  0  0  0  0  0  0
    8.6862    3.4444    0.0000 N   0  0  0  0  0  0  0  0  0  0  0  0
    9.6380    2.2851    0.0000 C   0  0  0  0  0  0  0  0  0  0  0  0
   11.1366    2.2166    0.0000 C   0  0  0  0  0  0  0  0  0  0  0  0
   11.9451    3.4801    0.0000 N   0  0  0  0  0  0  0  0  0  0  0  0
   11.8266    0.8847    0.0000 N   0  0  0  0  0  0  0  0  0  0  0  0
   11.0181   -0.3788    0.0000 C   0  0  0  0  0  0  0  0  0  0  0  0
    9.5196   -0.3103    0.0000 N   0  0  0  0  0  0  0  0  0  0  0  0
    8.8295    1.0217    0.0000 C   0  0  0  0  0  0  0  0  0  0  0  0
   11.7079   -1.7106    0.0000 N   0  0  0  0  0  0  0  0  0  0  0  0
   13.1910   -1.9354    0.0000 C   0  0  0  0  0  0  0  0  0  0  0  0
   13.4357   -3.4153    0.0000 C   0  0  0  0  0  0  0  0  0  0  0  0
   12.1036   -4.1053    0.0000 C   0  0  0  0  0  0  0  0  0  0  0  0
   11.0358   -3.0517    0.0000 N   0  0  0  0  0  0  0  0  0  0  0  0
   14.7767   -4.0873    0.0000 C   0  0  0  0  0  0  0  0  0  0  0  0
   16.0291   -3.2620    0.0000 O   0  0  0  0  0  0  0  0  0  0  0  0
   14.8653   -5.5846    0.0000 N   0  0  0  0  0  0  0  0  0  0  0  0
   16.2063   -6.2566    0.0000 C   0  0  0  0  0  0  0  0  0  0  0  0
    2.2040    0.4032    0.0000 C   0  0  0  0  0  0  0  0  0  0  0  0
    1.6570    1.7999    0.0000 O   0  0  0  0  0  0  0  0  0  0  0  0
    1.3955   -0.8603    0.0000 C   0  0  0  0  0  0  0  0  0  0  0  0
   -0.1018   -0.9488    0.0000 O   0  0  0  0  0  0  0  0  0  0  0  0
  1  2  1  0  0  0  0
  2  3  1  0  0  0  0
  4  3  1  0  0  0  0
  3 29  1  0  0  0  0
  5  4  1  0  0  0  0
  5  6  1  0  0  0  0
 27  5  1  0  0  0  0
  6  7  1  0  0  0  0
  7  8  1  0  0  0  0
  9  8  1  0  0  0  0
  8 17  1  0  0  0  0
 10  9  2  0  0  0  0
 11 10  1  0  0  0  0
 12 11  1  0  0  0  0
 11 17  2  0  0  0  0
 12 13  1  0  0  0  0
 14 12  2  0  0  0  0
 15 14  1  0  0  0  0
 16 15  2  0  0  0  0
 15 18  1  0  0  0  0
 17 16  1  0  0  0  0
 19 18  1  0  0  0  0
 18 22  1  0  0  0  0
 20 19  2  0  0  0  0
 21 20  1  0  0  0  0
 20 23  1  0  0  0  0
 22 21  2  0  0  0  0
 23 24  2  0  0  0  0
 23 25  1  0  0  0  0
 25 26  1  0  0  0  0
 27 28  1  0  0  0  0
 29 27  1  0  0  0  0
 29 30  1  0  0  0  0
M  END
> <Inchi_key>
UMXJRDMFXXRMQO-UHFFFAOYSA-N

> <Source>
Mulliner

> <ID>
HT1805

> <H_MFHB>
0

> <CAS>


> <Cholestasis>


> <Name>
regadenoson

> <Class>
0


$$$$