
  -INDIGO-08031710012D

 27 30  0  0  0  0  0  0  0  0999 V2000
   16.2428   -6.2702    0.0000 C   0  0  0  0  0  0  0  0  0  0  0  0
   15.1318   -5.2623    0.0000 C   0  0  0  0  0  0  0  0  0  0  0  0
   15.4492   -3.7963    0.0000 O   0  0  0  0  0  0  0  0  0  0  0  0
   13.7035   -5.7205    0.0000 O   0  0  0  0  0  0  0  0  0  0  0  0
   12.5928   -4.7126    0.0000 C   0  0  0  0  0  0  0  0  0  0  0  0
   11.1643   -5.1707    0.0000 C   0  0  0  0  0  0  0  0  0  0  0  0
   10.8468   -6.6367    0.0000 O   0  0  0  0  0  0  0  0  0  0  0  0
   10.0535   -4.1628    0.0000 C   0  0  0  0  0  0  0  0  0  0  0  0
   10.2157   -2.6716    0.0000 C   0  0  0  0  0  0  0  0  0  0  0  0
    8.8477   -2.0564    0.0000 C   0  0  0  0  0  0  0  0  0  0  0  0
    7.8399   -3.1673    0.0000 C   0  0  0  0  0  0  0  0  0  0  0  0
    6.3399   -3.1616    0.0000 C   0  0  0  0  0  0  0  0  0  0  0  0
    5.5947   -1.8598    0.0000 C   0  0  0  0  0  0  0  0  0  0  0  0
    4.0950   -1.8541    0.0000 C   0  0  0  0  0  0  0  0  0  0  0  0
    3.3401   -3.1503    0.0000 C   0  0  0  0  0  0  0  0  0  0  0  0
    1.8399   -3.1447    0.0000 C   0  0  0  0  0  0  0  0  0  0  0  0
    1.0850   -4.4408    0.0000 C   0  0  0  0  0  0  0  0  0  0  0  0
   -0.4149   -4.4352    0.0000 O   0  0  0  0  0  0  0  0  0  0  0  0
    1.8303   -5.7427    0.0000 C   0  0  0  0  0  0  0  0  0  0  0  0
    3.3302   -5.7484    0.0000 C   0  0  0  0  0  0  0  0  0  0  0  0
    4.0851   -4.4522    0.0000 C   0  0  0  0  0  0  0  0  0  0  0  0
    4.8301   -5.7540    0.0000 C   0  0  0  0  0  0  0  0  0  0  0  0
    5.5850   -4.4578    0.0000 C   0  0  0  0  0  0  0  0  0  0  0  0
    6.3300   -5.7597    0.0000 C   0  0  0  0  0  0  0  0  0  0  0  0
    7.8302   -5.7653    0.0000 C   0  0  0  0  0  0  0  0  0  0  0  0
    8.5851   -4.4691    0.0000 C   0  0  0  0  0  0  0  0  0  0  0  0
    9.4407   -5.7011    0.0000 C   0  0  0  0  0  0  0  0  0  0  0  0
  1  2  1  0  0  0  0
  2  3  2  0  0  0  0
  2  4  1  0  0  0  0
  4  5  1  0  0  0  0
  5  6  1  0  0  0  0
  6  7  2  0  0  0  0
  6  8  1  0  0  0  0
  9  8  1  0  0  0  0
  8 26  1  0  0  0  0
 10  9  1  0  0  0  0
 11 10  1  0  0  0  0
 12 11  1  0  0  0  0
 11 26  1  0  0  0  0
 13 12  1  0  0  0  0
 12 23  1  0  0  0  0
 14 13  1  0  0  0  0
 15 14  1  0  0  0  0
 16 15  2  0  0  0  0
 15 21  1  0  0  0  0
 17 16  1  0  0  0  0
 17 18  2  0  0  0  0
 19 17  1  0  0  0  0
 20 19  1  0  0  0  0
 21 20  1  0  0  0  0
 21 22  1  0  0  0  0
 23 21  1  0  0  0  0
 24 23  1  0  0  0  0
 25 24  1  0  0  0  0
 26 25  1  0  0  0  0
 26 27  1  0  0  0  0
M  END
> <Inchi_key>
VPGRYOFKCNULNK-UHFFFAOYSA-N

> <Source>
Mulliner

> <ID>
HT3694

> <H_MFHB>
0

> <CAS>


> <Cholestasis>


> <Name>


> <Class>
0

$$$$