

  -INDIGO-08031710012D

 22 24  0  0  0  0  0  0  0  0999 V2000
    1.5001    1.5000    0.0000 C   0  0  0  0  0  0  0  0  0  0  0  0
    1.5001    0.0000    0.0000 N   0  0  0  0  0  0  0  0  0  0  0  0
    2.7989   -0.7500    0.0000 C   0  0  0  0  0  0  0  0  0  0  0  0
    4.0980    0.0000    0.0000 C   0  0  0  0  0  0  0  0  0  0  0  0
    5.3971   -0.7500    0.0000 C   0  0  0  0  0  0  0  0  0  0  0  0
    6.6962    0.0000    0.0000 C   0  0  0  0  0  0  0  0  0  0  0  0
    7.9951   -0.7500    0.0000 C   0  0  0  0  0  0  0  0  0  0  0  0
    9.2942    0.0000    0.0000 C   0  0  0  0  0  0  0  0  0  0  0  0
    9.2942    1.5000    0.0000 C   0  0  0  0  0  0  0  0  0  0  0  0
    7.9951    2.2500    0.0000 C   0  0  0  0  0  0  0  0  0  0  0  0
    6.6962    1.5000    0.0000 C   0  0  0  0  0  0  0  0  0  0  0  0
    0.2010   -0.7500    0.0000 C   0  0  0  0  0  0  0  0  0  0  0  0
   -1.0981    0.0000    0.0000 C   0  0  0  0  0  0  0  0  0  0  0  0
   -1.0981    1.5000    0.0000 C   0  0  0  0  0  0  0  0  0  0  0  0
   -2.3970    2.2500    0.0000 C   0  0  0  0  0  0  0  0  0  0  0  0
   -3.6961    1.5000    0.0000 C   0  0  0  0  0  0  0  0  0  0  0  0
   -3.6961    0.0000    0.0000 C   0  0  0  0  0  0  0  0  0  0  0  0
   -4.9952   -0.7500    0.0000 C   0  0  0  0  0  0  0  0  0  0  0  0
   -4.9952   -2.2500    0.0000 C   0  0  0  0  0  0  0  0  0  0  0  0
   -3.6961   -3.0000    0.0000 C   0  0  0  0  0  0  0  0  0  0  0  0
   -2.3970   -2.2500    0.0000 C   0  0  0  0  0  0  0  0  0  0  0  0
   -2.3970   -0.7500    0.0000 C   0  0  0  0  0  0  0  0  0  0  0  0
  1  2  1  0  0  0  0
  2  3  1  0  0  0  0
  2 12  1  0  0  0  0
  3  4  1  0  0  0  0
  4  5  2  0  0  0  0
  5  6  1  0  0  0  0
  7  6  2  0  0  0  0
  6 11  1  0  0  0  0
  8  7  1  0  0  0  0
  9  8  2  0  0  0  0
 10  9  1  0  0  0  0
 11 10  2  0  0  0  0
 12 13  1  0  0  0  0
 14 13  2  0  0  0  0
 13 22  1  0  0  0  0
 15 14  1  0  0  0  0
 16 15  2  0  0  0  0
 17 16  1  0  0  0  0
 18 17  1  0  0  0  0
 17 22  2  0  0  0  0
 19 18  2  0  0  0  0
 20 19  1  0  0  0  0
 21 20  2  0  0  0  0
 22 21  1  0  0  0  0
M  END
> <Inchi_key>
OZGNYLLQHRPOBR-DHZHZOJOSA-N

> <Source>
Mulliner , Kotsampasakou

> <ID>
EK0368;HT1454

> <H_MFHB>
0

> <CAS>


> <Cholestasis>
0

> <Name>
naftifine;naftifine hydrochloride

> <Class>
0


$$$$