

  -INDIGO-08031710012D

 17 20  0  0  0  0  0  0  0  0999 V2000
    1.2875   -3.8555    0.0000 C   0  0  0  0  0  0  0  0  0  0  0  0
    0.4385   -5.0921    0.0000 C   0  0  0  0  0  0  0  0  0  0  0  0
   -1.0569   -4.9752    0.0000 C   0  0  0  0  0  0  0  0  0  0  0  0
   -1.7056   -3.6219    0.0000 N   0  0  0  0  0  0  0  0  0  0  0  0
   -1.8779   -2.3526    0.0000 C   0  0  0  0  0  0  0  0  0  0  0  0
   -3.1290   -1.1877    0.0000 C   0  0  0  0  0  0  0  0  0  0  0  0
   -2.9404    0.0634    0.0000 C   0  0  0  0  0  0  0  0  0  0  0  0
   -2.1257   -1.1475    0.0000 C   0  0  0  0  0  0  0  0  0  0  0  0
   -3.3707   -2.3425    0.0000 C   0  0  0  0  0  0  0  0  0  0  0  0
   -3.5079   -3.5165    0.0000 N   0  0  0  0  0  0  0  0  0  0  0  0
   -4.1268   -4.8765    0.0000 C   0  0  0  0  0  0  0  0  0  0  0  0
   -5.6208   -5.0106    0.0000 C   0  0  0  0  0  0  0  0  0  0  0  0
   -6.4840   -3.7838    0.0000 C   0  0  0  0  0  0  0  0  0  0  0  0
   -5.8530   -2.4240    0.0000 C   0  0  0  0  0  0  0  0  0  0  0  0
   -4.3273   -2.3166    0.0000 C   0  0  0  0  0  0  0  0  0  0  0  0
   -0.8546   -2.3824    0.0000 C   0  0  0  0  0  0  0  0  0  0  0  0
    0.6410   -2.5020    0.0000 C   0  0  0  0  0  0  0  0  0  0  0  0
  2  1  1  0  0  0  0
  1 17  1  0  0  0  0
  3  2  1  0  0  0  0
  4  3  1  0  0  0  0
  5  4  1  0  0  0  0
  4 16  1  0  0  0  0
  6  5  1  0  0  0  0
  6  7  1  0  0  0  0
 15  6  1  0  0  0  0
  7  8  1  0  0  0  0
  8  9  1  0  0  0  0
 16  8  1  0  0  0  0
  9 10  1  0  0  0  0
 11 10  1  0  0  0  0
 10 15  1  0  0  0  0
 12 11  1  0  0  0  0
 13 12  1  0  0  0  0
 14 13  1  0  0  0  0
 15 14  1  0  0  0  0
 17 16  1  0  0  0  0
M  END
> <Inchi_key>
SLRCCWJSBJZJBV-UHFFFAOYSA-N

> <Source>
Mulliner

> <ID>
HT3021

> <H_MFHB>
0

> <CAS>


> <Cholestasis>


> <Name>


> <Class>
0


$$$$