

  -INDIGO-08031710012D

 20 22  0  0  0  0  0  0  0  0999 V2000
   -0.2884   -3.4193    0.0000 C   0  0  0  0  0  0  0  0  0  0  0  0
    1.0172   -2.6805    0.0000 N   0  0  0  0  0  0  0  0  0  0  0  0
    2.3182   -2.4895    0.0000 C   0  0  0  0  0  0  0  0  0  0  0  0
    2.4523   -1.0570    0.0000 C   0  0  0  0  0  0  0  0  0  0  0  0
    1.8065    0.1103    0.0000 C   0  0  0  0  0  0  0  0  0  0  0  0
    1.9799   -1.5060    0.0000 C   0  0  0  0  0  0  0  0  0  0  0  0
    3.5356   -2.3986    0.0000 C   0  0  0  0  0  0  0  0  0  0  0  0
    4.7582   -2.1863    0.0000 C   0  0  0  0  0  0  0  0  0  0  0  0
    3.7855   -3.3623    0.0000 C   0  0  0  0  0  0  0  0  0  0  0  0
    6.0554   -1.4328    0.0000 O   0  0  0  0  0  0  0  0  0  0  0  0
    7.3564   -2.1793    0.0000 C   0  0  0  0  0  0  0  0  0  0  0  0
    7.3603   -3.6793    0.0000 O   0  0  0  0  0  0  0  0  0  0  0  0
    8.6533   -1.4258    0.0000 C   0  0  0  0  0  0  0  0  0  0  0  0
    8.6494    0.0742    0.0000 O   0  0  0  0  0  0  0  0  0  0  0  0
    9.9544   -2.1724    0.0000 C   0  0  0  0  0  0  0  0  0  0  0  0
   11.2515   -1.4189    0.0000 C   0  0  0  0  0  0  0  0  0  0  0  0
   12.5526   -2.1654    0.0000 C   0  0  0  0  0  0  0  0  0  0  0  0
   12.5565   -3.6654    0.0000 C   0  0  0  0  0  0  0  0  0  0  0  0
   11.2596   -4.4189    0.0000 C   0  0  0  0  0  0  0  0  0  0  0  0
    9.9585   -3.6724    0.0000 C   0  0  0  0  0  0  0  0  0  0  0  0
  1  2  1  0  0  0  0
  3  2  1  0  0  0  0
  2  6  1  0  0  0  0
  3  4  1  0  0  0  0
  9  3  1  0  0  0  0
  4  5  1  0  0  0  0
  5  6  1  0  0  0  0
  6  7  1  0  0  0  0
  7  8  1  0  0  0  0
  8  9  1  0  0  0  0
  8 10  1  0  0  0  0
 10 11  1  0  0  0  0
 11 12  2  0  0  0  0
 11 13  1  0  0  0  0
 13 14  1  0  0  0  0
 13 15  1  0  0  0  0
 16 15  2  0  0  0  0
 15 20  1  0  0  0  0
 17 16  1  0  0  0  0
 18 17  2  0  0  0  0
 19 18  1  0  0  0  0
 20 19  2  0  0  0  0
M  END
> <Inchi_key>
ZTVIKZXZYLEVOL-UHFFFAOYSA-N

> <Source>
Mulliner

> <ID>
HT1038

> <H_MFHB>
0

> <CAS>


> <Cholestasis>


> <Name>
homatropine

> <Class>
0


$$$$