
  -INDIGO-08031710012D

 14 14  0  0  0  0  0  0  0  0999 V2000
   10.2175   -1.3449    0.0000 O   0  0  0  0  0  0  0  0  0  0  0  0
    8.9185   -2.0949    0.0000 C   0  0  0  0  0  0  0  0  0  0  0  0
    8.9185   -3.5949    0.0000 O   0  0  0  0  0  0  0  0  0  0  0  0
    7.6195   -1.3449    0.0000 C   0  0  0  0  0  0  0  0  0  0  0  0
    6.3204   -2.0949    0.0000 N   0  0  0  0  0  0  0  0  0  0  0  0
    5.0214   -1.3449    0.0000 C   0  0  0  0  0  0  0  0  0  0  0  0
    5.0214    0.1551    0.0000 O   0  0  0  0  0  0  0  0  0  0  0  0
    3.7222   -2.0949    0.0000 C   0  0  0  0  0  0  0  0  0  0  0  0
    3.7222   -3.5949    0.0000 C   0  0  0  0  0  0  0  0  0  0  0  0
    2.4234   -4.3449    0.0000 C   0  0  0  0  0  0  0  0  0  0  0  0
    1.1242   -3.5949    0.0000 C   0  0  0  0  0  0  0  0  0  0  0  0
    1.1242   -2.0949    0.0000 C   0  0  0  0  0  0  0  0  0  0  0  0
    2.4234   -1.3449    0.0000 C   0  0  0  0  0  0  0  0  0  0  0  0
    2.4234    0.1551    0.0000 I   0  0  0  0  0  0  0  0  0  0  0  0
  1  2  1  0  0  0  0
  2  3  2  0  0  0  0
  2  4  1  0  0  0  0
  4  5  1  0  0  0  0
  5  6  1  0  0  0  0
  6  7  2  0  0  0  0
  6  8  1  0  0  0  0
  9  8  2  0  0  0  0
  8 13  1  0  0  0  0
 10  9  1  0  0  0  0
 11 10  2  0  0  0  0
 12 11  1  0  0  0  0
 13 12  2  0  0  0  0
 13 14  1  0  0  0  0
M  END
> <Inchi_key>
CORFWQGVBFFZHF-UHFFFAOYSA-N

> <Source>
Mulliner

> <ID>
HT3383

> <H_MFHB>
0

> <CAS>


> <Cholestasis>


> <Name>


> <Class>
0

$$$$