

  -INDIGO-08031710012D

 16 17  0  0  0  0  0  0  0  0999 V2000
    7.3940    3.8344    0.0000 O   0  0  0  0  0  0  0  0  0  0  0  0
    7.3940    5.3344    0.0000 C   0  0  0  0  0  0  0  0  0  0  0  0
    8.6931    6.0844    0.0000 O   0  0  0  0  0  0  0  0  0  0  0  0
    6.0950    6.0844    0.0000 C   0  0  0  0  0  0  0  0  0  0  0  0
    4.7961    5.3344    0.0000 C   0  0  0  0  0  0  0  0  0  0  0  0
    3.4970    6.0844    0.0000 C   0  0  0  0  0  0  0  0  0  0  0  0
    2.1978    5.3344    0.0000 C   0  0  0  0  0  0  0  0  0  0  0  0
    0.8989    6.0844    0.0000 C   0  0  0  0  0  0  0  0  0  0  0  0
    0.7421    7.5762    0.0000 S   0  0  0  0  0  0  0  0  0  0  0  0
   -0.7252    7.8881    0.0000 C   0  0  0  0  0  0  0  0  0  0  0  0
   -1.4751    6.5890    0.0000 C   0  0  0  0  0  0  0  0  0  0  0  0
   -2.8456    5.9789    0.0000 N   0  0  0  0  0  0  0  0  0  0  0  0
   -2.6887    4.4871    0.0000 C   0  0  0  0  0  0  0  0  0  0  0  0
   -3.8034    3.4834    0.0000 O   0  0  0  0  0  0  0  0  0  0  0  0
   -1.2215    4.1753    0.0000 N   0  0  0  0  0  0  0  0  0  0  0  0
   -0.4716    5.4743    0.0000 C   0  0  0  0  0  0  0  0  0  0  0  0
  1  2  1  0  0  0  0
  2  3  2  0  0  0  0
  2  4  1  0  0  0  0
  4  5  1  0  0  0  0
  5  6  1  0  0  0  0
  6  7  1  0  0  0  0
  7  8  1  0  0  0  0
  9  8  1  0  0  0  0
  8 16  1  0  0  0  0
 10  9  1  0  0  0  0
 11 10  1  0  0  0  0
 12 11  1  0  0  0  0
 11 16  1  0  0  0  0
 13 12  1  0  0  0  0
 13 14  2  0  0  0  0
 15 13  1  0  0  0  0
 16 15  1  0  0  0  0
M  END
> <Inchi_key>
YBJHBAHKTGYVGT-UHFFFAOYSA-N

> <Source>
Mulliner

> <ID>
HT0288

> <H_MFHB>
0

> <CAS>


> <Cholestasis>


> <Name>
biotin

> <Class>
0


$$$$