
  -INDIGO-08031710012D

 19 20  0  0  0  0  0  0  0  0999 V2000
    1.0548    6.4242    0.0000 C   0  0  0  0  0  0  0  0  0  0  0  0
    1.0548    4.9242    0.0000 C   0  0  0  0  0  0  0  0  0  0  0  0
    2.3537    4.1742    0.0000 C   0  0  0  0  0  0  0  0  0  0  0  0
    2.3537    2.6742    0.0000 C   0  0  0  0  0  0  0  0  0  0  0  0
    1.0548    1.9242    0.0000 C   0  0  0  0  0  0  0  0  0  0  0  0
   -0.2443    2.6742    0.0000 C   0  0  0  0  0  0  0  0  0  0  0  0
   -0.9944    1.3752    0.0000 C   0  0  0  0  0  0  0  0  0  0  0  0
   -1.7444    2.6742    0.0000 C   0  0  0  0  0  0  0  0  0  0  0  0
   -0.2443    4.1742    0.0000 C   0  0  0  0  0  0  0  0  0  0  0  0
    3.6527    1.9242    0.0000 O   0  0  0  0  0  0  0  0  0  0  0  0
    4.9518    2.6742    0.0000 C   0  0  0  0  0  0  0  0  0  0  0  0
    4.9518    4.1742    0.0000 O   0  0  0  0  0  0  0  0  0  0  0  0
    6.2508    1.9242    0.0000 C   0  0  0  0  0  0  0  0  0  0  0  0
    6.2508    0.4242    0.0000 C   0  0  0  0  0  0  0  0  0  0  0  0
    7.5498   -0.3258    0.0000 C   0  0  0  0  0  0  0  0  0  0  0  0
    8.8489    0.4242    0.0000 C   0  0  0  0  0  0  0  0  0  0  0  0
    8.8489    1.9242    0.0000 C   0  0  0  0  0  0  0  0  0  0  0  0
    7.5498    2.6742    0.0000 C   0  0  0  0  0  0  0  0  0  0  0  0
    7.5498    4.1742    0.0000 O   0  0  0  0  0  0  0  0  0  0  0  0
  1  2  1  0  0  0  0
  3  2  1  0  0  0  0
  2  9  1  0  0  0  0
  4  3  1  0  0  0  0
  5  4  1  0  0  0  0
  4 10  1  0  0  0  0
  6  5  1  0  0  0  0
  6  7  1  0  0  0  0
  6  8  1  0  0  0  0
  9  6  1  0  0  0  0
 10 11  1  0  0  0  0
 11 12  2  0  0  0  0
 11 13  1  0  0  0  0
 14 13  2  0  0  0  0
 13 18  1  0  0  0  0
 15 14  1  0  0  0  0
 16 15  2  0  0  0  0
 17 16  1  0  0  0  0
 18 17  2  0  0  0  0
 18 19  1  0  0  0  0
M  END
> <Inchi_key>
WSSJONWNBBTCMG-UHFFFAOYSA-N

> <Source>
Mulliner

> <ID>
HT3160

> <H_MFHB>
0

> <CAS>


> <Cholestasis>


> <Name>


> <Class>
0

$$$$