

  -INDIGO-08031710012D

 23 24  0  0  0  0  0  0  0  0999 V2000
   16.2590   -6.0357    0.0000 O   0  0  0  0  0  0  0  0  0  0  0  0
   14.9599   -6.7857    0.0000 C   0  0  0  0  0  0  0  0  0  0  0  0
   14.9599   -8.2857    0.0000 O   0  0  0  0  0  0  0  0  0  0  0  0
   13.6609   -6.0357    0.0000 C   0  0  0  0  0  0  0  0  0  0  0  0
   12.3618   -6.7857    0.0000 C   0  0  0  0  0  0  0  0  0  0  0  0
   11.0628   -6.0357    0.0000 C   0  0  0  0  0  0  0  0  0  0  0  0
   11.0628   -4.5357    0.0000 O   0  0  0  0  0  0  0  0  0  0  0  0
    9.7637   -6.7857    0.0000 N   0  0  0  0  0  0  0  0  0  0  0  0
    8.4647   -6.0357    0.0000 C   0  0  0  0  0  0  0  0  0  0  0  0
    8.4647   -4.5357    0.0000 C   0  0  0  0  0  0  0  0  0  0  0  0
    7.1656   -3.7857    0.0000 C   0  0  0  0  0  0  0  0  0  0  0  0
    5.8666   -4.5357    0.0000 C   0  0  0  0  0  0  0  0  0  0  0  0
    5.8666   -6.0357    0.0000 C   0  0  0  0  0  0  0  0  0  0  0  0
    7.1656   -6.7857    0.0000 C   0  0  0  0  0  0  0  0  0  0  0  0
    4.5678   -3.7857    0.0000 S   0  0  0  0  0  0  0  0  0  0  0  0
    3.8177   -5.0848    0.0000 O   0  0  0  0  0  0  0  0  0  0  0  0
    5.3176   -2.4867    0.0000 O   0  0  0  0  0  0  0  0  0  0  0  0
    3.2685   -3.0357    0.0000 N   0  0  0  0  0  0  0  0  0  0  0  0
    1.9697   -3.7857    0.0000 C   0  0  0  0  0  0  0  0  0  0  0  0
    1.8128   -5.2775    0.0000 N   0  0  0  0  0  0  0  0  0  0  0  0
    0.3457   -5.5894    0.0000 C   0  0  0  0  0  0  0  0  0  0  0  0
   -0.4044   -4.2903    0.0000 C   0  0  0  0  0  0  0  0  0  0  0  0
    0.5992   -3.1756    0.0000 S   0  0  0  0  0  0  0  0  0  0  0  0
  1  2  1  0  0  0  0
  2  3  2  0  0  0  0
  2  4  1  0  0  0  0
  4  5  1  0  0  0  0
  5  6  1  0  0  0  0
  6  7  2  0  0  0  0
  6  8  1  0  0  0  0
  8  9  1  0  0  0  0
 10  9  2  0  0  0  0
  9 14  1  0  0  0  0
 11 10  1  0  0  0  0
 12 11  2  0  0  0  0
 13 12  1  0  0  0  0
 12 15  1  0  0  0  0
 14 13  2  0  0  0  0
 15 16  2  0  0  0  0
 15 17  2  0  0  0  0
 15 18  1  0  0  0  0
 18 19  1  0  0  0  0
 20 19  2  0  0  0  0
 19 23  1  0  0  0  0
 21 20  1  0  0  0  0
 22 21  2  0  0  0  0
 23 22  1  0  0  0  0
M  END
> <Inchi_key>
SKVLYVHULOWXTD-UHFFFAOYSA-N

> <Source>
Mulliner

> <ID>
HT3619

> <H_MFHB>
0

> <CAS>


> <Cholestasis>


> <Name>


> <Class>
0


$$$$