
  -INDIGO-08031710012D

 41 44  0  0  0  0  0  0  0  0999 V2000
   17.2913   -2.1131    0.0000 S   0  0  0  0  0  0  0  0  0  0  0  0
   17.2944   -0.6130    0.0000 O   0  0  0  0  0  0  0  0  0  0  0  0
   15.9909   -2.8605    0.0000 C   0  0  0  0  0  0  0  0  0  0  0  0
   18.5892   -2.8653    0.0000 C   0  0  0  0  0  0  0  0  0  0  0  0
   19.8896   -2.1178    0.0000 C   0  0  0  0  0  0  0  0  0  0  0  0
   21.1870   -2.8703    0.0000 C   0  0  0  0  0  0  0  0  0  0  0  0
   22.4875   -2.1226    0.0000 C   0  0  0  0  0  0  0  0  0  0  0  0
   21.7401   -0.8222    0.0000 F   0  0  0  0  0  0  0  0  0  0  0  0
   23.2353   -3.4230    0.0000 F   0  0  0  0  0  0  0  0  0  0  0  0
   23.7880   -1.3750    0.0000 C   0  0  0  0  0  0  0  0  0  0  0  0
   24.5357   -2.6754    0.0000 F   0  0  0  0  0  0  0  0  0  0  0  0
   23.0405   -0.0746    0.0000 F   0  0  0  0  0  0  0  0  0  0  0  0
   25.0884   -0.6275    0.0000 F   0  0  0  0  0  0  0  0  0  0  0  0
   14.6935   -2.1081    0.0000 C   0  0  0  0  0  0  0  0  0  0  0  0
   13.3930   -2.8558    0.0000 C   0  0  0  0  0  0  0  0  0  0  0  0
   12.0952   -2.1033    0.0000 C   0  0  0  0  0  0  0  0  0  0  0  0
   10.7947   -2.8510    0.0000 C   0  0  0  0  0  0  0  0  0  0  0  0
    9.4973   -2.0986    0.0000 C   0  0  0  0  0  0  0  0  0  0  0  0
    8.1969   -2.8462    0.0000 C   0  0  0  0  0  0  0  0  0  0  0  0
    6.8990   -2.0940    0.0000 C   0  0  0  0  0  0  0  0  0  0  0  0
    5.5986   -2.8415    0.0000 C   0  0  0  0  0  0  0  0  0  0  0  0
    4.3012   -2.0890    0.0000 C   0  0  0  0  0  0  0  0  0  0  0  0
    3.0007   -2.8367    0.0000 C   0  0  0  0  0  0  0  0  0  0  0  0
    4.3038   -0.5891    0.0000 C   0  0  0  0  0  0  0  0  0  0  0  0
    1.7029   -2.0843    0.0000 C   0  0  0  0  0  0  0  0  0  0  0  0
    2.9981   -4.3368    0.0000 C   0  0  0  0  0  0  0  0  0  0  0  0
    3.0064    0.1633    0.0000 C   0  0  0  0  0  0  0  0  0  0  0  0
    0.4024   -2.8319    0.0000 C   0  0  0  0  0  0  0  0  0  0  0  0
    1.7059   -0.5844    0.0000 C   0  0  0  0  0  0  0  0  0  0  0  0
    1.6976   -5.0842    0.0000 C   0  0  0  0  0  0  0  0  0  0  0  0
    4.1109   -5.3424    0.0000 C   0  0  0  0  0  0  0  0  0  0  0  0
    3.0090    1.6634    0.0000 C   0  0  0  0  0  0  0  0  0  0  0  0
    0.3998   -4.3318    0.0000 C   0  0  0  0  0  0  0  0  0  0  0  0
    0.4081    0.1681    0.0000 C   0  0  0  0  0  0  0  0  0  0  0  0
    0.4672   -5.9423    0.0000 C   0  0  0  0  0  0  0  0  0  0  0  0
    2.0065   -6.5522    0.0000 C   0  0  0  0  0  0  0  0  0  0  0  0
    3.4980   -6.7116    0.0000 C   0  0  0  0  0  0  0  0  0  0  0  0
    1.7112    2.4156    0.0000 C   0  0  0  0  0  0  0  0  0  0  0  0
    0.4107    1.6681    0.0000 C   0  0  0  0  0  0  0  0  0  0  0  0
    1.0011   -7.6649    0.0000 O   0  0  0  0  0  0  0  0  0  0  0  0
    1.7142    3.9157    0.0000 O   0  0  0  0  0  0  0  0  0  0  0  0
  1  2  1  0  0  0  0
  1  3  1  0  0  0  0
  1  4  1  0  0  0  0
  4  5  1  0  0  0  0
  5  6  1  0  0  0  0
  6  7  1  0  0  0  0
  7  8  1  0  0  0  0
  7  9  1  0  0  0  0
  7 10  1  0  0  0  0
 10 11  1  0  0  0  0
 10 12  1  0  0  0  0
 10 13  1  0  0  0  0
  3 14  1  0  0  0  0
 14 15  1  0  0  0  0
 15 16  1  0  0  0  0
 16 17  1  0  0  0  0
 17 18  1  0  0  0  0
 18 19  1  0  0  0  0
 19 20  1  0  0  0  0
 20 21  1  0  0  0  0
 21 22  1  0  0  0  0
 23 22  1  0  0  0  0
 22 24  1  0  0  0  0
 23 25  1  0  0  0  0
 26 23  1  0  0  0  0
 24 27  1  0  0  0  0
 25 28  1  0  0  0  0
 29 25  1  0  0  0  0
 26 30  1  0  0  0  0
 31 26  1  0  0  0  0
 32 27  2  0  0  0  0
 27 29  1  0  0  0  0
 28 33  1  0  0  0  0
 29 34  2  0  0  0  0
 30 35  1  0  0  0  0
 33 30  1  0  0  0  0
 30 36  1  0  0  0  0
 37 31  1  0  0  0  0
 38 32  1  0  0  0  0
 34 39  1  0  0  0  0
 36 37  1  0  0  0  0
 36 40  1  0  0  0  0
 38 41  1  0  0  0  0
 39 38  2  0  0  0  0
M  CHG  2   1   1   2  -1
M  END
> <Inchi_key>
VWUXBMIQPBEWFH-UHFFFAOYSA-N

> <Source>
Mulliner

> <ID>
HT3952;HT0943

> <H_MFHB>
0

> <CAS>
129453-61-8

> <Cholestasis>


> <Name>
fulvestrant

> <Class>
0

$$$$