
  -INDIGO-08031710012D

 19 21  0  0  0  0  0  0  0  0999 V2000
   10.6771   -6.1644    0.0000 C   0  0  0  0  0  0  0  0  0  0  0  0
    9.9270   -4.8654    0.0000 O   0  0  0  0  0  0  0  0  0  0  0  0
    8.4271   -4.8654    0.0000 C   0  0  0  0  0  0  0  0  0  0  0  0
    7.6771   -3.5664    0.0000 C   0  0  0  0  0  0  0  0  0  0  0  0
    6.1771   -3.5664    0.0000 C   0  0  0  0  0  0  0  0  0  0  0  0
    5.4271   -4.8654    0.0000 C   0  0  0  0  0  0  0  0  0  0  0  0
    6.1771   -6.1644    0.0000 C   0  0  0  0  0  0  0  0  0  0  0  0
    7.6771   -6.1644    0.0000 C   0  0  0  0  0  0  0  0  0  0  0  0
    3.9272   -4.8654    0.0000 C   0  0  0  0  0  0  0  0  0  0  0  0
    3.0453   -6.0789    0.0000 C   0  0  0  0  0  0  0  0  0  0  0  0
    3.5090   -7.5055    0.0000 O   0  0  0  0  0  0  0  0  0  0  0  0
    1.6189   -5.6154    0.0000 C   0  0  0  0  0  0  0  0  0  0  0  0
    0.3197   -6.3654    0.0000 C   0  0  0  0  0  0  0  0  0  0  0  0
   -0.9792   -5.6154    0.0000 C   0  0  0  0  0  0  0  0  0  0  0  0
   -0.9792   -4.1154    0.0000 C   0  0  0  0  0  0  0  0  0  0  0  0
    0.3197   -3.3654    0.0000 C   0  0  0  0  0  0  0  0  0  0  0  0
    1.6189   -4.1154    0.0000 C   0  0  0  0  0  0  0  0  0  0  0  0
    3.0453   -3.6519    0.0000 C   0  0  0  0  0  0  0  0  0  0  0  0
    3.5090   -2.2253    0.0000 O   0  0  0  0  0  0  0  0  0  0  0  0
  1  2  1  0  0  0  0
  2  3  1  0  0  0  0
  4  3  2  0  0  0  0
  3  8  1  0  0  0  0
  5  4  1  0  0  0  0
  6  5  2  0  0  0  0
  7  6  1  0  0  0  0
  6  9  1  0  0  0  0
  8  7  2  0  0  0  0
 10  9  1  0  0  0  0
  9 18  1  0  0  0  0
 10 11  2  0  0  0  0
 12 10  1  0  0  0  0
 13 12  1  0  0  0  0
 12 17  2  0  0  0  0
 14 13  2  0  0  0  0
 15 14  1  0  0  0  0
 16 15  2  0  0  0  0
 17 16  1  0  0  0  0
 18 17  1  0  0  0  0
 18 19  2  0  0  0  0
M  END
> <Inchi_key>
XRCFXMGQEVUZFC-UHFFFAOYSA-N

> <Source>
Mulliner

> <ID>
HT0162

> <H_MFHB>
0

> <CAS>


> <Cholestasis>


> <Name>
anisindione

> <Class>
0

$$$$