
  -INDIGO-08031710012D

 18 19  0  0  0  0  0  0  0  0999 V2000
    4.6815   -0.5147    0.0000 C   0  0  0  0  0  0  0  0  0  0  0  0
    4.6815   -2.0147    0.0000 C   0  0  0  0  0  0  0  0  0  0  0  0
    5.9803   -2.7647    0.0000 C   0  0  0  0  0  0  0  0  0  0  0  0
    7.2795   -2.0147    0.0000 Cl  0  0  0  0  0  0  0  0  0  0  0  0
    5.9803   -4.2647    0.0000 C   0  0  0  0  0  0  0  0  0  0  0  0
    4.6815   -5.0147    0.0000 C   0  0  0  0  0  0  0  0  0  0  0  0
    3.3824   -4.2647    0.0000 C   0  0  0  0  0  0  0  0  0  0  0  0
    3.3824   -2.7647    0.0000 C   0  0  0  0  0  0  0  0  0  0  0  0
    2.0833   -2.0147    0.0000 N   0  0  0  0  0  0  0  0  0  0  0  0
    0.7842   -2.7647    0.0000 C   0  0  0  0  0  0  0  0  0  0  0  0
    0.7842   -4.2647    0.0000 C   0  0  0  0  0  0  0  0  0  0  0  0
   -0.5146   -5.0147    0.0000 C   0  0  0  0  0  0  0  0  0  0  0  0
   -1.8138   -4.2647    0.0000 C   0  0  0  0  0  0  0  0  0  0  0  0
   -1.8138   -2.7647    0.0000 C   0  0  0  0  0  0  0  0  0  0  0  0
   -0.5146   -2.0147    0.0000 C   0  0  0  0  0  0  0  0  0  0  0  0
   -0.5146   -0.5147    0.0000 C   0  0  0  0  0  0  0  0  0  0  0  0
   -1.8138    0.2353    0.0000 O   0  0  0  0  0  0  0  0  0  0  0  0
    0.7842    0.2353    0.0000 O   0  0  0  0  0  0  0  0  0  0  0  0
  1  2  1  0  0  0  0
  3  2  2  0  0  0  0
  2  8  1  0  0  0  0
  3  4  1  0  0  0  0
  5  3  1  0  0  0  0
  6  5  2  0  0  0  0
  7  6  1  0  0  0  0
  8  7  2  0  0  0  0
  8  9  1  0  0  0  0
  9 10  1  0  0  0  0
 11 10  2  0  0  0  0
 10 15  1  0  0  0  0
 12 11  1  0  0  0  0
 13 12  2  0  0  0  0
 14 13  1  0  0  0  0
 15 14  2  0  0  0  0
 15 16  1  0  0  0  0
 16 17  2  0  0  0  0
 16 18  1  0  0  0  0
M  END
> <Inchi_key>
YEZNLOUZAIOMLT-UHFFFAOYSA-N

> <Source>
Mulliner

> <ID>
HT2083

> <H_MFHB>
0

> <CAS>


> <Cholestasis>


> <Name>
tolfenamic acid

> <Class>
0

$$$$