
  -INDIGO-08031710012D

 21 22  0  0  0  0  0  0  0  0999 V2000
    2.9286    2.9287    0.0000 C   0  0  0  0  0  0  0  0  0  0  0  0
    2.9286    1.4287    0.0000 C   0  0  0  0  0  0  0  0  0  0  0  0
    4.2276    0.6786    0.0000 C   0  0  0  0  0  0  0  0  0  0  0  0
    5.5267    1.4287    0.0000 O   0  0  0  0  0  0  0  0  0  0  0  0
    6.8258    0.6786    0.0000 C   0  0  0  0  0  0  0  0  0  0  0  0
    8.1247    1.4287    0.0000 C   0  0  0  0  0  0  0  0  0  0  0  0
    9.4238    0.6786    0.0000 C   0  0  0  0  0  0  0  0  0  0  0  0
    9.4238   -0.8214    0.0000 C   0  0  0  0  0  0  0  0  0  0  0  0
    8.1247   -1.5713    0.0000 C   0  0  0  0  0  0  0  0  0  0  0  0
    6.8258   -0.8214    0.0000 C   0  0  0  0  0  0  0  0  0  0  0  0
    1.6295    0.6786    0.0000 N   0  0  0  0  0  0  0  0  0  0  0  0
    0.3304    1.4287    0.0000 C   0  0  0  0  0  0  0  0  0  0  0  0
    0.3304    2.9287    0.0000 C   0  0  0  0  0  0  0  0  0  0  0  0
   -0.9685    3.6786    0.0000 Cl  0  0  0  0  0  0  0  0  0  0  0  0
    1.6295   -0.8214    0.0000 C   0  0  0  0  0  0  0  0  0  0  0  0
    0.3304   -1.5713    0.0000 C   0  0  0  0  0  0  0  0  0  0  0  0
   -0.9685   -0.8214    0.0000 C   0  0  0  0  0  0  0  0  0  0  0  0
   -2.2676   -1.5713    0.0000 C   0  0  0  0  0  0  0  0  0  0  0  0
   -2.2676   -3.0713    0.0000 C   0  0  0  0  0  0  0  0  0  0  0  0
   -0.9685   -3.8214    0.0000 C   0  0  0  0  0  0  0  0  0  0  0  0
    0.3304   -3.0713    0.0000 C   0  0  0  0  0  0  0  0  0  0  0  0
  1  2  1  0  0  0  0
  2  3  1  0  0  0  0
  2 11  1  0  0  0  0
  3  4  1  0  0  0  0
  4  5  1  0  0  0  0
  6  5  2  0  0  0  0
  5 10  1  0  0  0  0
  7  6  1  0  0  0  0
  8  7  2  0  0  0  0
  9  8  1  0  0  0  0
 10  9  2  0  0  0  0
 11 12  1  0  0  0  0
 11 15  1  0  0  0  0
 12 13  1  0  0  0  0
 13 14  1  0  0  0  0
 15 16  1  0  0  0  0
 17 16  2  0  0  0  0
 16 21  1  0  0  0  0
 18 17  1  0  0  0  0
 19 18  2  0  0  0  0
 20 19  1  0  0  0  0
 21 20  2  0  0  0  0
M  END
> <Inchi_key>
QZVCTJOXCFMACW-UHFFFAOYSA-N

> <Source>
Mulliner , Kotsampasakou

> <ID>
EK0417;HT1654

> <H_MFHB>
0

> <CAS>


> <Cholestasis>
0

> <Name>
phenoxybenzamine

> <Class>
0

$$$$