
  -INDIGO-08031710012D

 21 22  0  0  0  0  0  0  0  0999 V2000
   -0.2493    0.2493    0.0000 C   0  0  0  0  0  0  0  0  0  0  0  0
   -0.2493    1.7493    0.0000 C   0  0  0  0  0  0  0  0  0  0  0  0
   -1.5484    2.4993    0.0000 C   0  0  0  0  0  0  0  0  0  0  0  0
   -1.5484    3.9993    0.0000 O   0  0  0  0  0  0  0  0  0  0  0  0
   -2.8475    1.7493    0.0000 C   0  0  0  0  0  0  0  0  0  0  0  0
   -4.1464    2.4993    0.0000 C   0  0  0  0  0  0  0  0  0  0  0  0
   -5.4455    1.7493    0.0000 C   0  0  0  0  0  0  0  0  0  0  0  0
   -5.4455    0.2493    0.0000 C   0  0  0  0  0  0  0  0  0  0  0  0
   -4.1464   -0.5007    0.0000 C   0  0  0  0  0  0  0  0  0  0  0  0
   -2.8475    0.2493    0.0000 C   0  0  0  0  0  0  0  0  0  0  0  0
    1.0497    2.4993    0.0000 N   0  0  0  0  0  0  0  0  0  0  0  0
    1.0497    3.9993    0.0000 C   0  0  0  0  0  0  0  0  0  0  0  0
    2.3488    1.7493    0.0000 C   0  0  0  0  0  0  0  0  0  0  0  0
    3.6479    2.4993    0.0000 C   0  0  0  0  0  0  0  0  0  0  0  0
    4.9468    1.7493    0.0000 C   0  0  0  0  0  0  0  0  0  0  0  0
    4.9468    0.2493    0.0000 C   0  0  0  0  0  0  0  0  0  0  0  0
    6.2459   -0.5007    0.0000 C   0  0  0  0  0  0  0  0  0  0  0  0
    6.2459   -2.0007    0.0000 C   0  0  0  0  0  0  0  0  0  0  0  0
    4.9468   -2.7507    0.0000 C   0  0  0  0  0  0  0  0  0  0  0  0
    3.6479   -2.0007    0.0000 C   0  0  0  0  0  0  0  0  0  0  0  0
    3.6479   -0.5007    0.0000 C   0  0  0  0  0  0  0  0  0  0  0  0
  1  2  1  0  0  0  0
  2  3  1  0  0  0  0
  2 11  1  0  0  0  0
  3  4  1  0  0  0  0
  3  5  1  0  0  0  0
  6  5  2  0  0  0  0
  5 10  1  0  0  0  0
  7  6  1  0  0  0  0
  8  7  2  0  0  0  0
  9  8  1  0  0  0  0
 10  9  2  0  0  0  0
 11 12  1  0  0  0  0
 11 13  1  0  0  0  0
 13 14  1  0  0  0  0
 14 15  2  0  0  0  0
 15 16  1  0  0  0  0
 17 16  2  0  0  0  0
 16 21  1  0  0  0  0
 18 17  1  0  0  0  0
 19 18  2  0  0  0  0
 20 19  1  0  0  0  0
 21 20  2  0  0  0  0
M  END
> <Inchi_key>
YMJMZFPZRVMNCH-XFXZXTDPSA-N

> <Source>
Mulliner

> <ID>
HT3245

> <H_MFHB>
0

> <CAS>


> <Cholestasis>


> <Name>


> <Class>
0

$$$$