
  -INDIGO-08031710012D

 31 33  0  0  0  0  0  0  0  0999 V2000
    1.1836   -5.2795    0.0000 O   0  0  0  0  0  0  0  0  0  0  0  0
    0.7887   -3.8324    0.0000 C   0  0  0  0  0  0  0  0  0  0  0  0
    1.7272   -2.6623    0.0000 C   0  0  0  0  0  0  0  0  0  0  0  0
    0.9045   -1.4081    0.0000 C   0  0  0  0  0  0  0  0  0  0  0  0
   -0.5425   -1.8031    0.0000 N   0  0  0  0  0  0  0  0  0  0  0  0
   -0.6142   -3.3013    0.0000 N   0  0  0  0  0  0  0  0  0  0  0  0
   -1.8684   -4.1241    0.0000 C   0  0  0  0  0  0  0  0  0  0  0  0
   -1.7830   -5.6217    0.0000 C   0  0  0  0  0  0  0  0  0  0  0  0
   -3.2080   -3.4494    0.0000 C   0  0  0  0  0  0  0  0  0  0  0  0
   -3.0372   -6.4445    0.0000 C   0  0  0  0  0  0  0  0  0  0  0  0
   -4.4622   -4.2722    0.0000 C   0  0  0  0  0  0  0  0  0  0  0  0
   -4.3768   -5.7697    0.0000 C   0  0  0  0  0  0  0  0  0  0  0  0
   -5.6309   -6.5926    0.0000 S   0  0  0  0  0  0  0  0  0  0  0  0
   -4.8082   -7.8467    0.0000 O   0  0  0  0  0  0  0  0  0  0  0  0
   -6.4536   -5.3384    0.0000 O   0  0  0  0  0  0  0  0  0  0  0  0
   -6.8851   -7.4153    0.0000 O   0  0  0  0  0  0  0  0  0  0  0  0
    3.2256   -2.7338    0.0000 N   0  0  0  0  0  0  0  0  0  0  0  0
    3.9127   -4.0671    0.0000 N   0  0  0  0  0  0  0  0  0  0  0  0
    5.4110   -4.1387    0.0000 C   0  0  0  0  0  0  0  0  0  0  0  0
    6.0981   -5.4721    0.0000 C   0  0  0  0  0  0  0  0  0  0  0  0
    6.2220   -2.8769    0.0000 C   0  0  0  0  0  0  0  0  0  0  0  0
    7.5965   -5.5435    0.0000 C   0  0  0  0  0  0  0  0  0  0  0  0
    7.7204   -2.9484    0.0000 C   0  0  0  0  0  0  0  0  0  0  0  0
    8.4075   -4.2817    0.0000 C   0  0  0  0  0  0  0  0  0  0  0  0
    9.9058   -4.3533    0.0000 S   0  0  0  0  0  0  0  0  0  0  0  0
    9.9773   -2.8549    0.0000 O   0  0  0  0  0  0  0  0  0  0  0  0
    9.8344   -5.8516    0.0000 O   0  0  0  0  0  0  0  0  0  0  0  0
   11.4042   -4.4249    0.0000 O   0  0  0  0  0  0  0  0  0  0  0  0
    1.4356   -0.0053    0.0000 C   0  0  0  0  0  0  0  0  0  0  0  0
    2.9158    0.2362    0.0000 O   0  0  0  0  0  0  0  0  0  0  0  0
    0.4862    1.1561    0.0000 O   0  0  0  0  0  0  0  0  0  0  0  0
  1  2  2  0  0  0  0
  3  2  1  0  0  0  0
  4  3  2  0  0  0  0
  5  4  1  0  0  0  0
  2  6  1  0  0  0  0
  6  5  1  0  0  0  0
  6  7  1  0  0  0  0
  8  7  2  0  0  0  0
  7  9  1  0  0  0  0
 10  8  1  0  0  0  0
  9 11  2  0  0  0  0
 12 10  2  0  0  0  0
 11 12  1  0  0  0  0
 12 13  1  0  0  0  0
 13 14  2  0  0  0  0
 13 15  2  0  0  0  0
 13 16  1  0  0  0  0
  3 17  1  0  0  0  0
 17 18  2  0  0  0  0
 18 19  1  0  0  0  0
 20 19  2  0  0  0  0
 19 21  1  0  0  0  0
 22 20  1  0  0  0  0
 21 23  2  0  0  0  0
 24 22  2  0  0  0  0
 23 24  1  0  0  0  0
 24 25  1  0  0  0  0
 25 26  2  0  0  0  0
 25 27  2  0  0  0  0
 25 28  1  0  0  0  0
  4 29  1  0  0  0  0
 29 30  1  0  0  0  0
 29 31  2  0  0  0  0
M  END
> <Inchi_key>
SXSWSYRFTJDJTA-ISLYRVAYSA-N

> <Source>
Mulliner

> <ID>
HT2280

> <H_MFHB>
0

> <CAS>


> <Cholestasis>


> <Name>


> <Class>
0

$$$$