

  -INDIGO-08031710012D

 12 12  0  0  0  0  0  0  0  0999 V2000
    8.2676    2.2153    0.0000 C   0  0  0  0  0  0  0  0  0  0  0  0
    6.9686    1.4653    0.0000 N   0  0  0  0  0  0  0  0  0  0  0  0
    5.6697    2.2153    0.0000 C   0  0  0  0  0  0  0  0  0  0  0  0
    4.9195    0.9163    0.0000 C   0  0  0  0  0  0  0  0  0  0  0  0
    6.4196    3.5143    0.0000 C   0  0  0  0  0  0  0  0  0  0  0  0
    4.3706    2.9653    0.0000 C   0  0  0  0  0  0  0  0  0  0  0  0
    3.0715    2.2153    0.0000 C   0  0  0  0  0  0  0  0  0  0  0  0
    1.7724    2.9653    0.0000 C   0  0  0  0  0  0  0  0  0  0  0  0
    0.4734    2.2153    0.0000 C   0  0  0  0  0  0  0  0  0  0  0  0
    0.4734    0.7153    0.0000 C   0  0  0  0  0  0  0  0  0  0  0  0
    1.7724   -0.0347    0.0000 C   0  0  0  0  0  0  0  0  0  0  0  0
    3.0715    0.7153    0.0000 C   0  0  0  0  0  0  0  0  0  0  0  0
  1  2  1  0  0  0  0
  2  3  1  0  0  0  0
  3  4  1  0  0  0  0
  3  5  1  0  0  0  0
  3  6  1  0  0  0  0
  6  7  1  0  0  0  0
  8  7  2  0  0  0  0
  7 12  1  0  0  0  0
  9  8  1  0  0  0  0
 10  9  2  0  0  0  0
 11 10  1  0  0  0  0
 12 11  2  0  0  0  0
M  END
> <Inchi_key>
RXQCGGRTAILOIN-UHFFFAOYSA-N

> <Source>
Mulliner

> <ID>
HT1307

> <H_MFHB>
0

> <CAS>


> <Cholestasis>


> <Name>
mephentermine

> <Class>
0


$$$$