

  -INDIGO-08031710012D

 21 23  0  0  0  0  0  0  0  0999 V2000
    0.6610   -2.4668    0.0000 C   0  0  0  0  0  0  0  0  0  0  0  0
    1.9601   -1.7167    0.0000 N   0  0  0  0  0  0  0  0  0  0  0  0
    3.2591   -2.4668    0.0000 C   0  0  0  0  0  0  0  0  0  0  0  0
    4.5582   -1.7167    0.0000 C   0  0  0  0  0  0  0  0  0  0  0  0
    4.5582   -0.2167    0.0000 N   0  0  0  0  0  0  0  0  0  0  0  0
    3.2591    0.5332    0.0000 C   0  0  0  0  0  0  0  0  0  0  0  0
    1.9601   -0.2167    0.0000 C   0  0  0  0  0  0  0  0  0  0  0  0
    5.8571    0.5332    0.0000 C   0  0  0  0  0  0  0  0  0  0  0  0
    5.8571    2.0332    0.0000 C   0  0  0  0  0  0  0  0  0  0  0  0
    4.5582    2.7833    0.0000 C   0  0  0  0  0  0  0  0  0  0  0  0
    4.5582    4.2833    0.0000 C   0  0  0  0  0  0  0  0  0  0  0  0
    5.8571    5.0332    0.0000 C   0  0  0  0  0  0  0  0  0  0  0  0
    7.1561    4.2833    0.0000 C   0  0  0  0  0  0  0  0  0  0  0  0
    7.1561    2.7833    0.0000 C   0  0  0  0  0  0  0  0  0  0  0  0
    7.1561   -0.2167    0.0000 C   0  0  0  0  0  0  0  0  0  0  0  0
    7.1561   -1.7167    0.0000 C   0  0  0  0  0  0  0  0  0  0  0  0
    8.4552   -2.4668    0.0000 C   0  0  0  0  0  0  0  0  0  0  0  0
    9.7542   -1.7167    0.0000 C   0  0  0  0  0  0  0  0  0  0  0  0
   11.0533   -2.4668    0.0000 Cl  0  0  0  0  0  0  0  0  0  0  0  0
    9.7542   -0.2167    0.0000 C   0  0  0  0  0  0  0  0  0  0  0  0
    8.4552    0.5332    0.0000 C   0  0  0  0  0  0  0  0  0  0  0  0
  1  2  1  0  0  0  0
  3  2  1  0  0  0  0
  2  7  1  0  0  0  0
  4  3  1  0  0  0  0
  5  4  1  0  0  0  0
  6  5  1  0  0  0  0
  5  8  1  0  0  0  0
  7  6  1  0  0  0  0
  8  9  1  0  0  0  0
  8 15  1  0  0  0  0
 10  9  2  0  0  0  0
  9 14  1  0  0  0  0
 11 10  1  0  0  0  0
 12 11  2  0  0  0  0
 13 12  1  0  0  0  0
 14 13  2  0  0  0  0
 16 15  2  0  0  0  0
 15 21  1  0  0  0  0
 17 16  1  0  0  0  0
 18 17  2  0  0  0  0
 18 19  1  0  0  0  0
 20 18  1  0  0  0  0
 21 20  2  0  0  0  0
M  END
> <Inchi_key>
WFNAKBGANONZEQ-UHFFFAOYSA-N

> <Source>
Mulliner

> <ID>
HT0448

> <H_MFHB>
0

> <CAS>


> <Cholestasis>


> <Name>
chlorcyclizine hydrochloride

> <Class>
0


$$$$