

  -INDIGO-08031709442D

  4  3  0  0  0  0  0  0  0  0999 V2000
    3.0000    0.0000    0.0000 O   0  0  0  0  0  0  0  0  0  0  0  0
    1.5000    0.0000    0.0000 C   0  0  0  0  0  0  0  0  0  0  0  0
    0.7500   -1.2990    0.0000 O   0  0  0  0  0  0  0  0  0  0  0  0
    0.7500    1.2990    0.0000 O   0  0  0  0  0  0  0  0  0  0  0  0
  1  2  1  0  0  0  0
  2  3  1  0  0  0  0
  2  4  2  0  0  0  0
M  END
> <Inchi_key>
BVKZGUZCCUSVTD-UHFFFAOYSA-N

> <Source>
Kotsampasakou

> <ID>
EK0483

> <H_MFHB>


> <CAS>


> <Cholestasis>
0

> <Name>
sodium bicarbonate

> <Class>
0


$$$$