
  -INDIGO-08031710012D

 44 47  0  0  0  0  0  0  0  0999 V2000
   -1.7728    5.2682    0.0000 C   0  0  0  0  0  0  0  0  0  0  0  0
   -0.4737    4.5183    0.0000 O   0  0  0  0  0  0  0  0  0  0  0  0
    0.8254    5.2682    0.0000 C   0  0  0  0  0  0  0  0  0  0  0  0
    0.8254    6.7682    0.0000 C   0  0  0  0  0  0  0  0  0  0  0  0
   -0.4737    7.5183    0.0000 O   0  0  0  0  0  0  0  0  0  0  0  0
   -0.4737    9.0183    0.0000 C   0  0  0  0  0  0  0  0  0  0  0  0
   -1.7728    9.7682    0.0000 O   0  0  0  0  0  0  0  0  0  0  0  0
    0.8254    9.7682    0.0000 N   0  0  0  0  0  0  0  0  0  0  0  0
    2.1241    7.5183    0.0000 C   0  0  0  0  0  0  0  0  0  0  0  0
    2.1241    9.0183    0.0000 O   0  0  0  0  0  0  0  0  0  0  0  0
    3.4232    6.7682    0.0000 C   0  0  0  0  0  0  0  0  0  0  0  0
    4.7223    7.5183    0.0000 O   0  0  0  0  0  0  0  0  0  0  0  0
    6.0214    6.7682    0.0000 C   0  0  0  0  0  0  0  0  0  0  0  0
    6.0214    5.2682    0.0000 C   0  0  0  0  0  0  0  0  0  0  0  0
    7.3205    4.5183    0.0000 C   0  0  0  0  0  0  0  0  0  0  0  0
    8.6196    5.2682    0.0000 C   0  0  0  0  0  0  0  0  0  0  0  0
    9.9187    4.5183    0.0000 C   0  0  0  0  0  0  0  0  0  0  0  0
   11.2175    5.2682    0.0000 C   0  0  0  0  0  0  0  0  0  0  0  0
   12.5166    4.5183    0.0000 N   0  0  0  0  0  0  0  0  0  0  0  0
   13.8157    5.2682    0.0000 C   0  0  0  0  0  0  0  0  0  0  0  0
   13.8157    6.7682    0.0000 O   0  0  0  0  0  0  0  0  0  0  0  0
   15.1148    4.5183    0.0000 C   0  0  0  0  0  0  0  0  0  0  0  0
   15.1148    3.0183    0.0000 C   0  0  0  0  0  0  0  0  0  0  0  0
   16.4139    2.2682    0.0000 C   0  0  0  0  0  0  0  0  0  0  0  0
   17.7130    3.0183    0.0000 C   0  0  0  0  0  0  0  0  0  0  0  0
   19.0117    2.2682    0.0000 O   0  0  0  0  0  0  0  0  0  0  0  0
   17.7130    4.5183    0.0000 C   0  0  0  0  0  0  0  0  0  0  0  0
   19.0117    5.2682    0.0000 C   0  0  0  0  0  0  0  0  0  0  0  0
   19.0117    6.7682    0.0000 C   0  0  0  0  0  0  0  0  0  0  0  0
   20.3108    7.5183    0.0000 C   0  0  0  0  0  0  0  0  0  0  0  0
   20.3108    9.0183    0.0000 C   0  0  0  0  0  0  0  0  0  0  0  0
   21.6099    6.7682    0.0000 C   0  0  0  0  0  0  0  0  0  0  0  0
   16.4139    5.2682    0.0000 C   0  0  0  0  0  0  0  0  0  0  0  0
   11.2175    6.7682    0.0000 C   0  0  0  0  0  0  0  0  0  0  0  0
   12.5166    7.5183    0.0000 O   0  0  0  0  0  0  0  0  0  0  0  0
    9.9187    7.5183    0.0000 O   0  0  0  0  0  0  0  0  0  0  0  0
    8.6196    6.7682    0.0000 C   0  0  0  0  0  0  0  0  0  0  0  0
    7.3205    7.5183    0.0000 C   0  0  0  0  0  0  0  0  0  0  0  0
    7.3205    9.0183    0.0000 C   0  0  0  0  0  0  0  0  0  0  0  0
    9.9187    3.0183    0.0000 O   0  0  0  0  0  0  0  0  0  0  0  0
    3.4232    5.2682    0.0000 O   0  0  0  0  0  0  0  0  0  0  0  0
    2.1241    4.5183    0.0000 C   0  0  0  0  0  0  0  0  0  0  0  0
    2.8741    3.2192    0.0000 C   0  0  0  0  0  0  0  0  0  0  0  0
    1.3742    3.2192    0.0000 C   0  0  0  0  0  0  0  0  0  0  0  0
  1  2  1  0  0  0  0
  2  3  1  0  0  0  0
  4  3  1  0  0  0  0
  3 42  1  0  0  0  0
  4  5  1  0  0  0  0
  9  4  1  0  0  0  0
  5  6  1  0  0  0  0
  6  7  2  0  0  0  0
  6  8  1  0  0  0  0
  9 10  1  0  0  0  0
 11  9  1  0  0  0  0
 11 12  1  0  0  0  0
 41 11  1  0  0  0  0
 12 13  1  0  0  0  0
 14 13  2  0  0  0  0
 13 38  1  0  0  0  0
 15 14  1  0  0  0  0
 16 15  2  0  0  0  0
 17 16  1  0  0  0  0
 16 37  1  0  0  0  0
 18 17  2  0  0  0  0
 17 40  1  0  0  0  0
 18 19  1  0  0  0  0
 34 18  1  0  0  0  0
 19 20  1  0  0  0  0
 20 21  2  0  0  0  0
 20 22  1  0  0  0  0
 23 22  2  0  0  0  0
 22 33  1  0  0  0  0
 24 23  1  0  0  0  0
 25 24  2  0  0  0  0
 25 26  1  0  0  0  0
 27 25  1  0  0  0  0
 27 28  1  0  0  0  0
 33 27  2  0  0  0  0
 28 29  1  0  0  0  0
 29 30  2  0  0  0  0
 30 31  1  0  0  0  0
 30 32  1  0  0  0  0
 34 35  2  0  0  0  0
 36 34  1  0  0  0  0
 37 36  1  0  0  0  0
 38 37  2  0  0  0  0
 38 39  1  0  0  0  0
 42 41  1  0  0  0  0
 42 43  1  0  0  0  0
 42 44  1  0  0  0  0
M  END
> <Inchi_key>
YJQPYGGHQPGBLI-UHFFFAOYSA-N

> <Source>
Mulliner

> <ID>
HT1529

> <H_MFHB>
0

> <CAS>


> <Cholestasis>


> <Name>
novobiocin calcium;novobiocin sodium;novobiocin

> <Class>
0

$$$$