

  -INDIGO-08031710012D

 10  9  0  0  0  0  0  0  0  0999 V2000
    0.8559   -0.8559    0.0000 N   0  0  0  0  0  0  0  0  0  0  0  0
    0.8559    0.6441    0.0000 C   0  0  0  0  0  0  0  0  0  0  0  0
    2.1550    1.3941    0.0000 C   0  0  0  0  0  0  0  0  0  0  0  0
    3.4539    0.6441    0.0000 C   0  0  0  0  0  0  0  0  0  0  0  0
    4.7530    1.3941    0.0000 C   0  0  0  0  0  0  0  0  0  0  0  0
    6.0520    0.6441    0.0000 O   0  0  0  0  0  0  0  0  0  0  0  0
    4.7530    2.8941    0.0000 O   0  0  0  0  0  0  0  0  0  0  0  0
   -0.4432    1.3941    0.0000 C   0  0  0  0  0  0  0  0  0  0  0  0
   -1.7422    0.6441    0.0000 O   0  0  0  0  0  0  0  0  0  0  0  0
   -0.4432    2.8941    0.0000 O   0  0  0  0  0  0  0  0  0  0  0  0
  1  2  1  0  0  0  0
  2  3  1  0  0  0  0
  2  8  1  0  0  0  0
  3  4  1  0  0  0  0
  4  5  1  0  0  0  0
  5  6  2  0  0  0  0
  5  7  1  0  0  0  0
  8  9  2  0  0  0  0
  8 10  1  0  0  0  0
M  END
> <Inchi_key>
WHUUTDBJXJRKMK-UHFFFAOYSA-N

> <Source>
Mulliner , Kotsampasakou

> <ID>
EK0246;HT1203

> <H_MFHB>
0

> <CAS>
142-47-2

> <Cholestasis>
0

> <Name>
l-glutamic acid;glutamic acid;monosodium l-glutamate;glutamate

> <Class>
0


$$$$