

  -INDIGO-08031710012D

 29 32  0  0  0  0  0  0  0  0999 V2000
   11.9297    4.1226    0.0000 C   0  0  0  0  0  0  0  0  0  0  0  0
   11.9613    5.6222    0.0000 N   0  0  0  0  0  0  0  0  0  0  0  0
   13.2760    6.3447    0.0000 C   0  0  0  0  0  0  0  0  0  0  0  0
   10.6786    6.3993    0.0000 C   0  0  0  0  0  0  0  0  0  0  0  0
   10.7102    7.8990    0.0000 C   0  0  0  0  0  0  0  0  0  0  0  0
    9.4271    8.6763    0.0000 C   0  0  0  0  0  0  0  0  0  0  0  0
    8.1127    7.9538    0.0000 C   0  0  0  0  0  0  0  0  0  0  0  0
    8.0811    6.4541    0.0000 C   0  0  0  0  0  0  0  0  0  0  0  0
    6.7664    5.7317    0.0000 C   0  0  0  0  0  0  0  0  0  0  0  0
    5.4834    6.5088    0.0000 C   0  0  0  0  0  0  0  0  0  0  0  0
    5.5150    8.0085    0.0000 C   0  0  0  0  0  0  0  0  0  0  0  0
    4.2322    8.7857    0.0000 C   0  0  0  0  0  0  0  0  0  0  0  0
    2.9175    8.0633    0.0000 C   0  0  0  0  0  0  0  0  0  0  0  0
    1.6345    8.8405    0.0000 C   0  0  0  0  0  0  0  0  0  0  0  0
    1.5092   10.3352    0.0000 C   0  0  0  0  0  0  0  0  0  0  0  0
    0.0490   10.6779    0.0000 C   0  0  0  0  0  0  0  0  0  0  0  0
   -0.5322   12.0608    0.0000 C   0  0  0  0  0  0  0  0  0  0  0  0
   -0.7283    9.3950    0.0000 N   0  0  0  0  0  0  0  0  0  0  0  0
    0.2518    8.2594    0.0000 C   0  0  0  0  0  0  0  0  0  0  0  0
   -0.0910    6.7989    0.0000 C   0  0  0  0  0  0  0  0  0  0  0  0
   -2.2229    9.2696    0.0000 C   0  0  0  0  0  0  0  0  0  0  0  0
   -2.8619    7.9125    0.0000 C   0  0  0  0  0  0  0  0  0  0  0  0
   -4.3566    7.7871    0.0000 C   0  0  0  0  0  0  0  0  0  0  0  0
   -5.2125    9.0190    0.0000 C   0  0  0  0  0  0  0  0  0  0  0  0
   -4.5738   10.3761    0.0000 C   0  0  0  0  0  0  0  0  0  0  0  0
   -3.0789   10.5015    0.0000 C   0  0  0  0  0  0  0  0  0  0  0  0
    6.8296    8.7310    0.0000 N   0  0  0  0  0  0  0  0  0  0  0  0
    6.8612   10.2307    0.0000 C   0  0  0  0  0  0  0  0  0  0  0  0
    9.3639    5.6771    0.0000 C   0  0  0  0  0  0  0  0  0  0  0  0
  1  2  1  0  0  0  0
  2  3  1  0  0  0  0
  2  4  1  0  0  0  0
  5  4  2  0  0  0  0
  4 29  1  0  0  0  0
  6  5  1  0  0  0  0
  7  6  2  0  0  0  0
  7  8  1  0  0  0  0
 27  7  1  0  0  0  0
  8  9  1  0  0  0  0
 29  8  2  0  0  0  0
  9 10  2  0  0  0  0
 10 11  1  0  0  0  0
 11 12  1  0  0  0  0
 11 27  2  0  0  0  0
 12 13  2  0  0  0  0
 13 14  1  0  0  0  0
 15 14  1  0  0  0  0
 14 19  2  0  0  0  0
 16 15  2  0  0  0  0
 16 17  1  0  0  0  0
 18 16  1  0  0  0  0
 19 18  1  0  0  0  0
 18 21  1  0  0  0  0
 19 20  1  0  0  0  0
 22 21  2  0  0  0  0
 21 26  1  0  0  0  0
 23 22  1  0  0  0  0
 24 23  2  0  0  0  0
 25 24  1  0  0  0  0
 26 25  2  0  0  0  0
 27 28  1  0  0  0  0
M  CHG  1  27   1
M  END
> <Inchi_key>
QMHSXPLYMTVAMK-UHFFFAOYSA-N

> <Source>
Mulliner

> <ID>
HT1783

> <H_MFHB>
0

> <CAS>


> <Cholestasis>


> <Name>
pyrvinium

> <Class>
0


$$$$