
  -INDIGO-08031710012D

 28 31  0  0  0  0  0  0  0  0999 V2000
    1.2282   -2.8365    0.0000 F   0  0  0  0  0  0  0  0  0  0  0  0
    2.5303   -2.0921    0.0000 C   0  0  0  0  0  0  0  0  0  0  0  0
    3.8262   -2.8477    0.0000 C   0  0  0  0  0  0  0  0  0  0  0  0
    5.1285   -2.1033    0.0000 C   0  0  0  0  0  0  0  0  0  0  0  0
    5.1349   -0.6033    0.0000 C   0  0  0  0  0  0  0  0  0  0  0  0
    6.4372    0.1411    0.0000 C   0  0  0  0  0  0  0  0  0  0  0  0
    7.7329   -0.6145    0.0000 O   0  0  0  0  0  0  0  0  0  0  0  0
    6.4437    1.6410    0.0000 N   0  0  0  0  0  0  0  0  0  0  0  0
    7.7460    2.3855    0.0000 C   0  0  0  0  0  0  0  0  0  0  0  0
    9.0417    1.6298    0.0000 C   0  0  0  0  0  0  0  0  0  0  0  0
    9.0352    0.1300    0.0000 C   0  0  0  0  0  0  0  0  0  0  0  0
   10.3311   -0.6257    0.0000 C   0  0  0  0  0  0  0  0  0  0  0  0
   11.6332    0.1187    0.0000 C   0  0  0  0  0  0  0  0  0  0  0  0
   12.9291   -0.6370    0.0000 Br  0  0  0  0  0  0  0  0  0  0  0  0
   11.6398    1.6186    0.0000 C   0  0  0  0  0  0  0  0  0  0  0  0
   10.3440    2.3742    0.0000 C   0  0  0  0  0  0  0  0  0  0  0  0
   10.3506    3.8742    0.0000 F   0  0  0  0  0  0  0  0  0  0  0  0
    5.1480    2.3966    0.0000 C   0  0  0  0  0  0  0  0  0  0  0  0
    5.1544    3.8966    0.0000 O   0  0  0  0  0  0  0  0  0  0  0  0
    3.8457    1.6523    0.0000 C   0  0  0  0  0  0  0  0  0  0  0  0
    3.9828    3.1461    0.0000 C   0  0  0  0  0  0  0  0  0  0  0  0
    2.6046    3.7380    0.0000 C   0  0  0  0  0  0  0  0  0  0  0  0
    2.2736    5.2010    0.0000 O   0  0  0  0  0  0  0  0  0  0  0  0
    1.6156    2.6102    0.0000 N   0  0  0  0  0  0  0  0  0  0  0  0
    2.3827    1.3211    0.0000 C   0  0  0  0  0  0  0  0  0  0  0  0
    1.7906   -0.0571    0.0000 O   0  0  0  0  0  0  0  0  0  0  0  0
    3.8392    0.1523    0.0000 C   0  0  0  0  0  0  0  0  0  0  0  0
    2.5369   -0.5921    0.0000 C   0  0  0  0  0  0  0  0  0  0  0  0
  1  2  1  0  0  0  0
  3  2  2  0  0  0  0
  2 28  1  0  0  0  0
  4  3  1  0  0  0  0
  5  4  2  0  0  0  0
  6  5  1  0  0  0  0
  5 27  1  0  0  0  0
  6  7  2  0  0  0  0
  8  6  1  0  0  0  0
  8  9  1  0  0  0  0
 18  8  1  0  0  0  0
  9 10  1  0  0  0  0
 11 10  2  0  0  0  0
 10 16  1  0  0  0  0
 12 11  1  0  0  0  0
 13 12  2  0  0  0  0
 13 14  1  0  0  0  0
 15 13  1  0  0  0  0
 16 15  2  0  0  0  0
 16 17  1  0  0  0  0
 18 19  2  0  0  0  0
 20 18  1  0  0  0  0
 21 20  1  0  0  0  0
 20 25  1  0  0  0  0
 27 20  1  0  0  0  0
 22 21  1  0  0  0  0
 22 23  2  0  0  0  0
 24 22  1  0  0  0  0
 25 24  1  0  0  0  0
 25 26  2  0  0  0  0
 28 27  2  0  0  0  0
M  END
> <Inchi_key>
BMHZAHGTGIZZCT-UHFFFAOYSA-N

> <Source>
Mulliner

> <ID>
HT1405

> <H_MFHB>
0

> <CAS>
129688-50-2

> <Cholestasis>


> <Name>
minalrestat

> <Class>
0

$$$$