
  -INDIGO-08031710012D

 24 27  0  0  0  0  0  0  0  0999 V2000
   11.4989   -0.1003    0.0000 O   0  0  0  0  0  0  0  0  0  0  0  0
    9.9993   -0.0742    0.0000 C   0  0  0  0  0  0  0  0  0  0  0  0
    9.2266   -1.3599    0.0000 C   0  0  0  0  0  0  0  0  0  0  0  0
    7.7268   -1.3336    0.0000 C   0  0  0  0  0  0  0  0  0  0  0  0
    6.9997   -0.0218    0.0000 C   0  0  0  0  0  0  0  0  0  0  0  0
    7.7722    1.2639    0.0000 C   0  0  0  0  0  0  0  0  0  0  0  0
    9.2720    1.2378    0.0000 C   0  0  0  0  0  0  0  0  0  0  0  0
    5.4999    0.0044    0.0000 C   0  0  0  0  0  0  0  0  0  0  0  0
    5.6567   -1.4874    0.0000 C   0  0  0  0  0  0  0  0  0  0  0  0
    6.9558   -2.2374    0.0000 O   0  0  0  0  0  0  0  0  0  0  0  0
    4.2863   -2.0974    0.0000 N   0  0  0  0  0  0  0  0  0  0  0  0
    3.2825   -0.9828    0.0000 C   0  0  0  0  0  0  0  0  0  0  0  0
    1.7826   -0.9828    0.0000 C   0  0  0  0  0  0  0  0  0  0  0  0
    1.0326    0.3162    0.0000 C   0  0  0  0  0  0  0  0  0  0  0  0
    1.7826    1.6153    0.0000 C   0  0  0  0  0  0  0  0  0  0  0  0
    3.2825    1.6153    0.0000 C   0  0  0  0  0  0  0  0  0  0  0  0
    4.0327    0.3162    0.0000 C   0  0  0  0  0  0  0  0  0  0  0  0
    5.4737    1.5041    0.0000 C   0  0  0  0  0  0  0  0  0  0  0  0
    4.1619    2.2314    0.0000 C   0  0  0  0  0  0  0  0  0  0  0  0
    4.1357    3.7311    0.0000 C   0  0  0  0  0  0  0  0  0  0  0  0
    5.4213    4.5037    0.0000 C   0  0  0  0  0  0  0  0  0  0  0  0
    5.3951    6.0035    0.0000 O   0  0  0  0  0  0  0  0  0  0  0  0
    6.7333    3.7765    0.0000 C   0  0  0  0  0  0  0  0  0  0  0  0
    6.7595    2.2767    0.0000 C   0  0  0  0  0  0  0  0  0  0  0  0
  1  2  1  0  0  0  0
  3  2  2  0  0  0  0
  2  7  1  0  0  0  0
  4  3  1  0  0  0  0
  5  4  2  0  0  0  0
  6  5  1  0  0  0  0
  5  8  1  0  0  0  0
  7  6  2  0  0  0  0
  9  8  1  0  0  0  0
  8 17  1  0  0  0  0
  8 18  1  0  0  0  0
  9 10  2  0  0  0  0
 11  9  1  0  0  0  0
 12 11  1  0  0  0  0
 13 12  1  0  0  0  0
 12 17  2  0  0  0  0
 14 13  2  0  0  0  0
 15 14  1  0  0  0  0
 16 15  2  0  0  0  0
 17 16  1  0  0  0  0
 19 18  2  0  0  0  0
 18 24  1  0  0  0  0
 20 19  1  0  0  0  0
 21 20  2  0  0  0  0
 21 22  1  0  0  0  0
 23 21  1  0  0  0  0
 24 23  2  0  0  0  0
M  END
> <Inchi_key>
SJDACOMXKWHBOW-UHFFFAOYSA-N

> <Source>
Mulliner

> <ID>
HT1573

> <H_MFHB>
0

> <CAS>


> <Cholestasis>


> <Name>
oxyphenisatin;oxyphenisatine

> <Class>
0

$$$$