
  -INDIGO-08031710012D

 11 11  0  0  0  0  0  0  0  0999 V2000
    7.6364   -0.4724    0.0000 N   0  0  0  0  0  0  0  0  0  0  0  0
    6.1364   -0.4724    0.0000 C   0  0  0  0  0  0  0  0  0  0  0  0
    5.3864   -1.7714    0.0000 C   0  0  0  0  0  0  0  0  0  0  0  0
    3.8864   -1.7714    0.0000 C   0  0  0  0  0  0  0  0  0  0  0  0
    3.1364   -0.4724    0.0000 C   0  0  0  0  0  0  0  0  0  0  0  0
    1.6364   -0.4724    0.0000 C   0  0  0  0  0  0  0  0  0  0  0  0
    0.8864    0.8267    0.0000 O   0  0  0  0  0  0  0  0  0  0  0  0
    0.8864   -1.7714    0.0000 O   0  0  0  0  0  0  0  0  0  0  0  0
    3.8864    0.8267    0.0000 C   0  0  0  0  0  0  0  0  0  0  0  0
    3.1364    2.1257    0.0000 O   0  0  0  0  0  0  0  0  0  0  0  0
    5.3864    0.8267    0.0000 C   0  0  0  0  0  0  0  0  0  0  0  0
  1  2  1  0  0  0  0
  3  2  2  0  0  0  0
  2 11  1  0  0  0  0
  4  3  1  0  0  0  0
  5  4  2  0  0  0  0
  5  6  1  0  0  0  0
  9  5  1  0  0  0  0
  6  7  2  0  0  0  0
  6  8  1  0  0  0  0
  9 10  1  0  0  0  0
 11  9  2  0  0  0  0
M  END
> <Inchi_key>
WUBBRNOQWQTFEX-UHFFFAOYSA-N

> <Source>
Mulliner

> <ID>
HT0139

> <H_MFHB>
0

> <CAS>


> <Cholestasis>


> <Name>
aminosalicylate sodium;aminosalicylic acid;para-aminosalicylic acid;para-aminosalicylic sodium

> <Class>
0

$$$$