

  -INDIGO-08031709442D

 30 32  0  0  0  0  0  0  0  0999 V2000
   -3.6814   -3.6984    0.0000 O   0  0  0  0  0  0  0  0  0  0  0  0
   -3.6746   -5.1984    0.0000 C   0  0  0  0  0  0  0  0  0  0  0  0
   -4.9704   -5.9543    0.0000 C   0  0  0  0  0  0  0  0  0  0  0  0
   -4.9633   -7.4543    0.0000 C   0  0  0  0  0  0  0  0  0  0  0  0
   -6.2590   -8.2103    0.0000 O   0  0  0  0  0  0  0  0  0  0  0  0
   -3.6610   -8.1984    0.0000 C   0  0  0  0  0  0  0  0  0  0  0  0
   -2.3653   -7.4424    0.0000 C   0  0  0  0  0  0  0  0  0  0  0  0
   -2.3721   -5.9425    0.0000 C   0  0  0  0  0  0  0  0  0  0  0  0
   -1.0630   -8.1865    0.0000 C   0  0  0  0  0  0  0  0  0  0  0  0
    0.2327   -7.4306    0.0000 C   0  0  0  0  0  0  0  0  0  0  0  0
    1.5352   -8.1746    0.0000 C   0  0  0  0  0  0  0  0  0  0  0  0
    2.8307   -7.4187    0.0000 C   0  0  0  0  0  0  0  0  0  0  0  0
    3.1358   -5.9500    0.0000 C   0  0  0  0  0  0  0  0  0  0  0  0
    4.6269   -5.7864    0.0000 C   0  0  0  0  0  0  0  0  0  0  0  0
    5.2433   -7.1539    0.0000 C   0  0  0  0  0  0  0  0  0  0  0  0
    6.7120   -7.4591    0.0000 C   0  0  0  0  0  0  0  0  0  0  0  0
    7.7106   -6.3398    0.0000 C   0  0  0  0  0  0  0  0  0  0  0  0
    9.1790   -6.6450    0.0000 C   0  0  0  0  0  0  0  0  0  0  0  0
   10.1776   -5.5257    0.0000 C   0  0  0  0  0  0  0  0  0  0  0  0
   11.6463   -5.8308    0.0000 C   0  0  0  0  0  0  0  0  0  0  0  0
   11.9514   -4.3622    0.0000 O   0  0  0  0  0  0  0  0  0  0  0  0
   13.1150   -6.1360    0.0000 C   0  0  0  0  0  0  0  0  0  0  0  0
   11.3412   -7.2994    0.0000 C   0  0  0  0  0  0  0  0  0  0  0  0
    9.7076   -4.1012    0.0000 C   0  0  0  0  0  0  0  0  0  0  0  0
    7.1820   -8.8835    0.0000 C   0  0  0  0  0  0  0  0  0  0  0  0
    4.1332   -8.1627    0.0000 C   0  0  0  0  0  0  0  0  0  0  0  0
    4.1400   -9.6628    0.0000 C   0  0  0  0  0  0  0  0  0  0  0  0
    2.8443  -10.4186    0.0000 C   0  0  0  0  0  0  0  0  0  0  0  0
    1.5420   -9.6746    0.0000 C   0  0  0  0  0  0  0  0  0  0  0  0
    5.5064   -8.7666    0.0000 C   0  0  0  0  0  0  0  0  0  0  0  0
  1  2  1  0  0  0  0
  3  2  1  0  0  0  0
  2  8  1  0  0  0  0
  4  3  1  0  0  0  0
  4  5  1  0  0  0  0
  6  4  1  0  0  0  0
  7  6  1  0  0  0  0
  8  7  1  0  0  0  0
  7  9  2  0  0  0  0
  9 10  1  0  0  0  0
 10 11  2  0  0  0  0
 12 11  1  0  0  0  0
 11 29  1  0  0  0  0
 13 12  1  0  0  0  0
 12 26  1  0  0  0  0
 14 13  1  0  0  0  0
 15 14  1  0  0  0  0
 15 16  1  0  0  0  0
 26 15  1  0  0  0  0
 16 17  1  0  0  0  0
 16 25  1  0  0  0  0
 17 18  2  0  0  0  0
 18 19  1  0  0  0  0
 19 20  1  0  0  0  0
 19 24  1  0  0  0  0
 20 21  1  0  0  0  0
 20 22  1  0  0  0  0
 20 23  1  0  0  0  0
 27 26  1  0  0  0  0
 26 30  1  0  0  0  0
 28 27  1  0  0  0  0
 29 28  1  0  0  0  0
M  END
> <Inchi_key>
BPKAHTKRCLCHEA-PHQQETDXSA-N, BPKAHTKRCLCHEA-RNRCKTQFSA-N

> <Source>
Kotsampasakou,  Mulliner

> <ID>
HT1596;EK0401

> <H_MFHB>
0

> <CAS>


> <Cholestasis>
0

> <Name>
paricalcitol

> <Class>
0


$$$$