

  -INDIGO-08031710012D

 19 20  0  0  0  0  0  0  0  0999 V2000
    1.5712    0.4210    0.0000 C   0  0  0  0  0  0  0  0  0  0  0  0
    0.2721   -0.3289    0.0000 N   0  0  0  0  0  0  0  0  0  0  0  0
   -1.0269    0.4210    0.0000 C   0  0  0  0  0  0  0  0  0  0  0  0
    0.2721   -1.8289    0.0000 C   0  0  0  0  0  0  0  0  0  0  0  0
    1.5712   -2.5790    0.0000 C   0  0  0  0  0  0  0  0  0  0  0  0
    1.5712   -4.0790    0.0000 N   0  0  0  0  0  0  0  0  0  0  0  0
    2.8702   -4.8289    0.0000 C   0  0  0  0  0  0  0  0  0  0  0  0
    4.1694   -4.0790    0.0000 C   0  0  0  0  0  0  0  0  0  0  0  0
    4.1694   -2.5790    0.0000 C   0  0  0  0  0  0  0  0  0  0  0  0
    5.4682   -1.8289    0.0000 C   0  0  0  0  0  0  0  0  0  0  0  0
    6.7674   -2.5790    0.0000 C   0  0  0  0  0  0  0  0  0  0  0  0
    6.7674   -4.0790    0.0000 C   0  0  0  0  0  0  0  0  0  0  0  0
    5.4682   -4.8289    0.0000 C   0  0  0  0  0  0  0  0  0  0  0  0
    0.2721   -4.8289    0.0000 C   0  0  0  0  0  0  0  0  0  0  0  0
   -1.0269   -4.0790    0.0000 C   0  0  0  0  0  0  0  0  0  0  0  0
   -2.3259   -4.8289    0.0000 C   0  0  0  0  0  0  0  0  0  0  0  0
   -2.3259   -6.3289    0.0000 C   0  0  0  0  0  0  0  0  0  0  0  0
   -1.0269   -7.0790    0.0000 C   0  0  0  0  0  0  0  0  0  0  0  0
    0.2721   -6.3289    0.0000 N   0  0  0  0  0  0  0  0  0  0  0  0
  1  2  1  0  0  0  0
  2  3  1  0  0  0  0
  2  4  1  0  0  0  0
  4  5  1  0  0  0  0
  5  6  1  0  0  0  0
  6  7  1  0  0  0  0
  6 14  1  0  0  0  0
  7  8  1  0  0  0  0
  9  8  2  0  0  0  0
  8 13  1  0  0  0  0
 10  9  1  0  0  0  0
 11 10  2  0  0  0  0
 12 11  1  0  0  0  0
 13 12  2  0  0  0  0
 15 14  2  0  0  0  0
 14 19  1  0  0  0  0
 16 15  1  0  0  0  0
 17 16  2  0  0  0  0
 18 17  1  0  0  0  0
 19 18  2  0  0  0  0
M  END
> <Inchi_key>
UFLGIAIHIAPJJC-UHFFFAOYSA-N

> <Source>
Mulliner

> <ID>
HT2132

> <H_MFHB>
0

> <CAS>
154-69-8

> <Cholestasis>


> <Name>
tripelennamine;tripelennamine hydrochloride

> <Class>
0


$$$$