
  -INDIGO-08031710012D

 12 12  0  0  0  0  0  0  0  0999 V2000
    8.6250   -2.8146    0.0000 N   0  0  0  0  0  0  0  0  0  0  0  0
    7.1251   -2.8146    0.0000 C   0  0  0  0  0  0  0  0  0  0  0  0
    6.3750   -1.5155    0.0000 C   0  0  0  0  0  0  0  0  0  0  0  0
    7.1251   -0.2165    0.0000 O   0  0  0  0  0  0  0  0  0  0  0  0
    4.8750   -1.5155    0.0000 C   0  0  0  0  0  0  0  0  0  0  0  0
    4.1250   -2.8146    0.0000 C   0  0  0  0  0  0  0  0  0  0  0  0
    2.6250   -2.8146    0.0000 C   0  0  0  0  0  0  0  0  0  0  0  0
    1.8749   -1.5155    0.0000 C   0  0  0  0  0  0  0  0  0  0  0  0
    0.3750   -1.5155    0.0000 O   0  0  0  0  0  0  0  0  0  0  0  0
    2.6250   -0.2165    0.0000 C   0  0  0  0  0  0  0  0  0  0  0  0
    1.8749    1.0825    0.0000 O   0  0  0  0  0  0  0  0  0  0  0  0
    4.1250   -0.2165    0.0000 C   0  0  0  0  0  0  0  0  0  0  0  0
  1  2  1  0  0  0  0
  2  3  1  0  0  0  0
  3  4  1  0  0  0  0
  3  5  1  0  0  0  0
  6  5  2  0  0  0  0
  5 12  1  0  0  0  0
  7  6  1  0  0  0  0
  8  7  2  0  0  0  0
  8  9  1  0  0  0  0
 10  8  1  0  0  0  0
 10 11  1  0  0  0  0
 12 10  2  0  0  0  0
M  END
> <Inchi_key>
SFLSHLFXELFNJZ-UHFFFAOYSA-N

> <Source>
Mulliner , Kotsampasakou

> <ID>
EK0387;HT1520

> <H_MFHB>
0

> <CAS>


> <Cholestasis>
0

> <Name>
norepinephrine bitartrate;norepinephrine

> <Class>
0

$$$$