

  -INDIGO-08031710012D

 31 32  0  0  0  0  0  0  0  0999 V2000
    6.0234  -10.8911    0.0000 C   0  0  0  0  0  0  0  0  0  0  0  0
    6.8207   -9.6206    0.0000 N   0  0  0  0  0  0  0  0  0  0  0  0
    7.6180   -8.3501    0.0000 C   0  0  0  0  0  0  0  0  0  0  0  0
    8.0911  -10.4179    0.0000 C   0  0  0  0  0  0  0  0  0  0  0  0
    5.5502   -8.8233    0.0000 C   0  0  0  0  0  0  0  0  0  0  0  0
    4.2243   -9.5249    0.0000 C   0  0  0  0  0  0  0  0  0  0  0  0
    2.9539   -8.7276    0.0000 O   0  0  0  0  0  0  0  0  0  0  0  0
    1.6280   -9.4292    0.0000 P   0  0  0  0  0  0  0  0  0  0  0  0
    2.3296  -10.7550    0.0000 O   0  0  0  0  0  0  0  0  0  0  0  0
    0.9264   -8.1034    0.0000 O   0  0  0  0  0  0  0  0  0  0  0  0
    0.3021  -10.1308    0.0000 O   0  0  0  0  0  0  0  0  0  0  0  0
   -0.9684   -9.3335    0.0000 P   0  0  0  0  0  0  0  0  0  0  0  0
   -1.7657  -10.6040    0.0000 O   0  0  0  0  0  0  0  0  0  0  0  0
   -0.1711   -8.0630    0.0000 O   0  0  0  0  0  0  0  0  0  0  0  0
   -2.2388   -8.5361    0.0000 O   0  0  0  0  0  0  0  0  0  0  0  0
   -3.5647   -9.2378    0.0000 C   0  0  0  0  0  0  0  0  0  0  0  0
   -4.8352   -8.4404    0.0000 C   0  0  0  0  0  0  0  0  0  0  0  0
   -6.2269   -8.9997    0.0000 O   0  0  0  0  0  0  0  0  0  0  0  0
   -7.1891   -7.8487    0.0000 C   0  0  0  0  0  0  0  0  0  0  0  0
   -6.3915   -6.5782    0.0000 C   0  0  0  0  0  0  0  0  0  0  0  0
   -6.9509   -5.1863    0.0000 O   0  0  0  0  0  0  0  0  0  0  0  0
   -4.9370   -6.9439    0.0000 C   0  0  0  0  0  0  0  0  0  0  0  0
   -3.7860   -5.9819    0.0000 O   0  0  0  0  0  0  0  0  0  0  0  0
   -8.6854   -7.9505    0.0000 N   0  0  0  0  0  0  0  0  0  0  0  0
   -9.5219   -6.7053    0.0000 C   0  0  0  0  0  0  0  0  0  0  0  0
  -11.0186   -6.8070    0.0000 C   0  0  0  0  0  0  0  0  0  0  0  0
  -11.6786   -8.1539    0.0000 C   0  0  0  0  0  0  0  0  0  0  0  0
  -10.8423   -9.3991    0.0000 N   0  0  0  0  0  0  0  0  0  0  0  0
   -9.3457   -9.2974    0.0000 C   0  0  0  0  0  0  0  0  0  0  0  0
   -8.5092  -10.5425    0.0000 O   0  0  0  0  0  0  0  0  0  0  0  0
  -13.1752   -8.2557    0.0000 N   0  0  0  0  0  0  0  0  0  0  0  0
  1  2  1  0  0  0  0
  2  3  1  0  0  0  0
  2  4  1  0  0  0  0
  2  5  1  0  0  0  0
  5  6  1  0  0  0  0
  6  7  1  0  0  0  0
  7  8  1  0  0  0  0
  8  9  2  0  0  0  0
  8 10  1  0  0  0  0
  8 11  1  0  0  0  0
 11 12  1  0  0  0  0
 12 13  2  0  0  0  0
 12 14  1  0  0  0  0
 12 15  1  0  0  0  0
 15 16  1  0  0  0  0
 16 17  1  0  0  0  0
 18 17  1  0  0  0  0
 17 22  1  0  0  0  0
 19 18  1  0  0  0  0
 20 19  1  0  0  0  0
 19 24  1  0  0  0  0
 20 21  1  0  0  0  0
 22 20  1  0  0  0  0
 22 23  1  0  0  0  0
 25 24  1  0  0  0  0
 24 29  1  0  0  0  0
 26 25  2  0  0  0  0
 27 26  1  0  0  0  0
 28 27  2  0  0  0  0
 27 31  1  0  0  0  0
 29 28  1  0  0  0  0
 29 30  2  0  0  0  0
M  CHG  2   2   1  14  -1
M  END
> <Inchi_key>
RZZPDXZPRHQOCG-UHFFFAOYSA-N

> <Source>
Mulliner

> <ID>
HT0502

> <H_MFHB>
0

> <CAS>


> <Cholestasis>


> <Name>
citicoline

> <Class>
0


$$$$