
  -INDIGO-08031710012D

 12 13  0  0  0  0  0  0  0  0999 V2000
    0.5323    0.3868    0.0000 C   0  0  0  0  0  0  0  0  0  0  0  0
    0.0688   -1.0398    0.0000 N   0  0  0  0  0  0  0  0  0  0  0  0
   -1.3578   -1.5034    0.0000 C   0  0  0  0  0  0  0  0  0  0  0  0
   -1.3578   -3.0034    0.0000 C   0  0  0  0  0  0  0  0  0  0  0  0
    0.0688   -3.4669    0.0000 C   0  0  0  0  0  0  0  0  0  0  0  0
    0.9505   -2.2534    0.0000 C   0  0  0  0  0  0  0  0  0  0  0  0
    2.4505   -2.2534    0.0000 C   0  0  0  0  0  0  0  0  0  0  0  0
    3.2005   -3.5524    0.0000 C   0  0  0  0  0  0  0  0  0  0  0  0
    4.7005   -3.5524    0.0000 C   0  0  0  0  0  0  0  0  0  0  0  0
    5.4505   -2.2534    0.0000 C   0  0  0  0  0  0  0  0  0  0  0  0
    4.7005   -0.9543    0.0000 N   0  0  0  0  0  0  0  0  0  0  0  0
    3.2005   -0.9543    0.0000 C   0  0  0  0  0  0  0  0  0  0  0  0
  1  2  1  0  0  0  0
  3  2  1  0  0  0  0
  2  6  1  0  0  0  0
  4  3  1  0  0  0  0
  5  4  1  0  0  0  0
  6  5  1  0  0  0  0
  6  7  1  0  0  0  0
  8  7  2  0  0  0  0
  7 12  1  0  0  0  0
  9  8  1  0  0  0  0
 10  9  2  0  0  0  0
 11 10  1  0  0  0  0
 12 11  2  0  0  0  0
M  END
> <Inchi_key>
SNICXCGAKADSCV-UHFFFAOYSA-N

> <Source>
Mulliner , Kotsampasakou

> <ID>
EK0380;HT1488

> <H_MFHB>
0

> <CAS>
11/5/1954

> <Cholestasis>
0

> <Name>
nicotine;nicotine polacrilex

> <Class>
0

$$$$