
  -INDIGO-08031710012D

 34 37  0  0  0  0  0  0  0  0999 V2000
    2.2372    4.9344    0.0000 C   0  0  0  0  0  0  0  0  0  0  0  0
    3.2258    3.8061    0.0000 N   0  0  0  0  0  0  0  0  0  0  0  0
    4.6971    4.0980    0.0000 C   0  0  0  0  0  0  0  0  0  0  0  0
    2.7428    2.3860    0.0000 C   0  0  0  0  0  0  0  0  0  0  0  0
    3.7313    1.2577    0.0000 C   0  0  0  0  0  0  0  0  0  0  0  0
    3.2483   -0.1623    0.0000 N   0  0  0  0  0  0  0  0  0  0  0  0
    1.8157   -0.6065    0.0000 N   0  0  0  0  0  0  0  0  0  0  0  0
    1.7952   -2.1064    0.0000 N   0  0  0  0  0  0  0  0  0  0  0  0
    3.2154   -2.5893    0.0000 N   0  0  0  0  0  0  0  0  0  0  0  0
    4.1133   -1.3878    0.0000 C   0  0  0  0  0  0  0  0  0  0  0  0
    5.6133   -1.4083    0.0000 S   0  0  0  0  0  0  0  0  0  0  0  0
    6.3454   -2.7174    0.0000 C   0  0  0  0  0  0  0  0  0  0  0  0
    7.8453   -2.7377    0.0000 C   0  0  0  0  0  0  0  0  0  0  0  0
    8.5777   -4.0470    0.0000 C   0  0  0  0  0  0  0  0  0  0  0  0
   10.0774   -4.0675    0.0000 N   0  0  0  0  0  0  0  0  0  0  0  0
   10.8450   -2.7787    0.0000 C   0  0  0  0  0  0  0  0  0  0  0  0
   10.1129   -1.4695    0.0000 S   0  0  0  0  0  0  0  0  0  0  0  0
    8.6129   -1.4491    0.0000 C   0  0  0  0  0  0  0  0  0  0  0  0
   12.1338   -3.5462    0.0000 C   0  0  0  0  0  0  0  0  0  0  0  0
   13.5879   -3.1778    0.0000 N   0  0  0  0  0  0  0  0  0  0  0  0
   13.9957   -1.7343    0.0000 C   0  0  0  0  0  0  0  0  0  0  0  0
   12.9497   -0.6593    0.0000 O   0  0  0  0  0  0  0  0  0  0  0  0
   15.4499   -1.3659    0.0000 C   0  0  0  0  0  0  0  0  0  0  0  0
   15.8577    0.0776    0.0000 C   0  0  0  0  0  0  0  0  0  0  0  0
   14.9296    1.2561    0.0000 C   0  0  0  0  0  0  0  0  0  0  0  0
   15.7638    2.5028    0.0000 S   0  0  0  0  0  0  0  0  0  0  0  0
   17.2073    2.0949    0.0000 C   0  0  0  0  0  0  0  0  0  0  0  0
   18.3857    3.0228    0.0000 N   0  0  0  0  0  0  0  0  0  0  0  0
   17.2652    0.5960    0.0000 N   0  0  0  0  0  0  0  0  0  0  0  0
   11.3662   -4.8350    0.0000 C   0  0  0  0  0  0  0  0  0  0  0  0
   11.7348   -6.2890    0.0000 O   0  0  0  0  0  0  0  0  0  0  0  0
    7.8099   -5.3357    0.0000 C   0  0  0  0  0  0  0  0  0  0  0  0
    6.3102   -5.3152    0.0000 O   0  0  0  0  0  0  0  0  0  0  0  0
    8.5423   -6.6448    0.0000 O   0  0  0  0  0  0  0  0  0  0  0  0
  1  2  1  0  0  0  0
  2  3  1  0  0  0  0
  2  4  1  0  0  0  0
  4  5  1  0  0  0  0
  5  6  1  0  0  0  0
  7  6  1  0  0  0  0
  6 10  1  0  0  0  0
  8  7  2  0  0  0  0
  9  8  1  0  0  0  0
 10  9  2  0  0  0  0
 10 11  1  0  0  0  0
 11 12  1  0  0  0  0
 12 13  1  0  0  0  0
 14 13  2  0  0  0  0
 13 18  1  0  0  0  0
 15 14  1  0  0  0  0
 14 32  1  0  0  0  0
 15 16  1  0  0  0  0
 30 15  1  0  0  0  0
 17 16  1  0  0  0  0
 16 19  1  0  0  0  0
 18 17  1  0  0  0  0
 19 20  1  0  0  0  0
 19 30  1  0  0  0  0
 20 21  1  0  0  0  0
 21 22  2  0  0  0  0
 21 23  1  0  0  0  0
 23 24  1  0  0  0  0
 25 24  2  0  0  0  0
 24 29  1  0  0  0  0
 26 25  1  0  0  0  0
 27 26  1  0  0  0  0
 27 28  1  0  0  0  0
 29 27  2  0  0  0  0
 30 31  2  0  0  0  0
 32 33  2  0  0  0  0
 32 34  1  0  0  0  0
M  END
> <Inchi_key>
QYQDKDWGWDOFFU-UHFFFAOYSA-N

> <Source>
Mulliner

> <ID>
HT0414

> <H_MFHB>
0

> <CAS>
61622-34-2

> <Cholestasis>


> <Name>
cefotiam hydrochloride;cefotiam

> <Class>
0

$$$$