
  -INDIGO-08031710012D

 34 36  0  0  0  0  0  0  0  0999 V2000
   -4.6572   -2.6888    0.0000 C   0  0  0  0  0  0  0  0  0  0  0  0
   -5.4072   -3.9879    0.0000 C   0  0  0  0  0  0  0  0  0  0  0  0
   -4.6572   -5.2869    0.0000 O   0  0  0  0  0  0  0  0  0  0  0  0
   -5.4072   -6.5860    0.0000 C   0  0  0  0  0  0  0  0  0  0  0  0
   -6.9071   -6.5860    0.0000 O   0  0  0  0  0  0  0  0  0  0  0  0
   -4.6572   -7.8850    0.0000 C   0  0  0  0  0  0  0  0  0  0  0  0
   -3.1570   -7.8850    0.0000 N   0  0  0  0  0  0  0  0  0  0  0  0
   -2.4070   -9.1839    0.0000 C   0  0  0  0  0  0  0  0  0  0  0  0
   -3.1570  -10.4830    0.0000 C   0  0  0  0  0  0  0  0  0  0  0  0
   -4.6572  -10.4830    0.0000 C   0  0  0  0  0  0  0  0  0  0  0  0
   -5.4072  -11.7820    0.0000 C   0  0  0  0  0  0  0  0  0  0  0  0
   -4.6572  -13.0811    0.0000 C   0  0  0  0  0  0  0  0  0  0  0  0
   -3.1570  -13.0811    0.0000 C   0  0  0  0  0  0  0  0  0  0  0  0
   -2.4070  -11.7820    0.0000 C   0  0  0  0  0  0  0  0  0  0  0  0
   -0.9071   -9.1839    0.0000 C   0  0  0  0  0  0  0  0  0  0  0  0
   -0.1571  -10.4830    0.0000 O   0  0  0  0  0  0  0  0  0  0  0  0
   -0.1571   -7.8850    0.0000 N   0  0  0  0  0  0  0  0  0  0  0  0
   -0.5453   -6.4361    0.0000 C   0  0  0  0  0  0  0  0  0  0  0  0
    0.9036   -6.0478    0.0000 C   0  0  0  0  0  0  0  0  0  0  0  0
    1.2918   -7.4967    0.0000 C   0  0  0  0  0  0  0  0  0  0  0  0
    2.5908   -8.2467    0.0000 C   0  0  0  0  0  0  0  0  0  0  0  0
    2.5908   -9.7467    0.0000 O   0  0  0  0  0  0  0  0  0  0  0  0
    3.8898   -7.4967    0.0000 N   0  0  0  0  0  0  0  0  0  0  0  0
    5.1888   -8.2467    0.0000 C   0  0  0  0  0  0  0  0  0  0  0  0
    6.4878   -7.4967    0.0000 C   0  0  0  0  0  0  0  0  0  0  0  0
    7.7868   -8.2467    0.0000 C   0  0  0  0  0  0  0  0  0  0  0  0
    9.0861   -7.4967    0.0000 C   0  0  0  0  0  0  0  0  0  0  0  0
    9.0861   -5.9967    0.0000 C   0  0  0  0  0  0  0  0  0  0  0  0
    7.7868   -5.2466    0.0000 C   0  0  0  0  0  0  0  0  0  0  0  0
    6.4878   -5.9967    0.0000 C   0  0  0  0  0  0  0  0  0  0  0  0
   10.3851   -5.2466    0.0000 C   0  0  0  0  0  0  0  0  0  0  0  0
   10.3851   -3.7467    0.0000 N   0  0  0  0  0  0  0  0  0  0  0  0
   11.6841   -5.9967    0.0000 N   0  0  0  0  0  0  0  0  0  0  0  0
   12.9831   -5.2466    0.0000 O   0  0  0  0  0  0  0  0  0  0  0  0
  1  2  1  0  0  0  0
  2  3  1  0  0  0  0
  3  4  1  0  0  0  0
  4  5  2  0  0  0  0
  4  6  1  0  0  0  0
  6  7  1  0  0  0  0
  7  8  1  0  0  0  0
  8  9  1  0  0  0  0
  8 15  1  0  0  0  0
 10  9  1  0  0  0  0
  9 14  1  0  0  0  0
 11 10  1  0  0  0  0
 12 11  1  0  0  0  0
 13 12  1  0  0  0  0
 14 13  1  0  0  0  0
 15 16  2  0  0  0  0
 15 17  1  0  0  0  0
 18 17  1  0  0  0  0
 17 20  1  0  0  0  0
 19 18  1  0  0  0  0
 20 19  1  0  0  0  0
 20 21  1  0  0  0  0
 21 22  2  0  0  0  0
 21 23  1  0  0  0  0
 23 24  1  0  0  0  0
 24 25  1  0  0  0  0
 26 25  2  0  0  0  0
 25 30  1  0  0  0  0
 27 26  1  0  0  0  0
 28 27  2  0  0  0  0
 29 28  1  0  0  0  0
 28 31  1  0  0  0  0
 30 29  2  0  0  0  0
 31 32  2  0  0  0  0
 31 33  1  0  0  0  0
 33 34  1  0  0  0  0
M  END
> <Inchi_key>
ZXIBCJHYVWYIKI-UHFFFAOYSA-N

> <Source>
Mulliner

> <ID>
HT2201

> <H_MFHB>
0

> <CAS>


> <Cholestasis>


> <Name>
ximelagatran

> <Class>
0

$$$$