
  -INDIGO-08031710012D

 17 18  0  0  0  0  0  0  0  0999 V2000
    2.6334   -0.2655    0.0000 C   0  0  0  0  0  0  0  0  0  0  0  0
    1.1636    0.0339    0.0000 C   0  0  0  0  0  0  0  0  0  0  0  0
    0.6880    1.4565    0.0000 C   0  0  0  0  0  0  0  0  0  0  0  0
    0.1694   -1.0893    0.0000 C   0  0  0  0  0  0  0  0  0  0  0  0
   -1.3004   -0.7899    0.0000 O   0  0  0  0  0  0  0  0  0  0  0  0
    0.6450   -2.5119    0.0000 C   0  0  0  0  0  0  0  0  0  0  0  0
   -0.2263   -3.7328    0.0000 C   0  0  0  0  0  0  0  0  0  0  0  0
    0.6656   -4.9388    0.0000 N   0  0  0  0  0  0  0  0  0  0  0  0
    2.0882   -4.4632    0.0000 N   0  0  0  0  0  0  0  0  0  0  0  0
    3.3936   -5.2022    0.0000 C   0  0  0  0  0  0  0  0  0  0  0  0
    4.6862   -4.4412    0.0000 C   0  0  0  0  0  0  0  0  0  0  0  0
    4.6735   -2.9412    0.0000 C   0  0  0  0  0  0  0  0  0  0  0  0
    3.3681   -2.2023    0.0000 C   0  0  0  0  0  0  0  0  0  0  0  0
    2.0755   -2.9633    0.0000 C   0  0  0  0  0  0  0  0  0  0  0  0
   -1.7263   -3.7456    0.0000 C   0  0  0  0  0  0  0  0  0  0  0  0
   -2.4652   -5.0509    0.0000 C   0  0  0  0  0  0  0  0  0  0  0  0
   -2.4873   -2.4529    0.0000 C   0  0  0  0  0  0  0  0  0  0  0  0
  1  2  1  0  0  0  0
  2  3  1  0  0  0  0
  2  4  1  0  0  0  0
  4  5  2  0  0  0  0
  4  6  1  0  0  0  0
  7  6  1  0  0  0  0
  6 14  2  0  0  0  0
  8  7  2  0  0  0  0
  7 15  1  0  0  0  0
  9  8  1  0  0  0  0
 10  9  1  0  0  0  0
  9 14  1  0  0  0  0
 11 10  2  0  0  0  0
 12 11  1  0  0  0  0
 13 12  2  0  0  0  0
 14 13  1  0  0  0  0
 15 16  1  0  0  0  0
 15 17  1  0  0  0  0
M  END
> <Inchi_key>
ZJVFLBOZORBYFE-UHFFFAOYSA-N

> <Source>
Mulliner

> <ID>
HT1067

> <H_MFHB>
0

> <CAS>


> <Cholestasis>


> <Name>
ibudilast

> <Class>
0

$$$$