
  -INDIGO-08031710012D

 19 20  0  0  0  0  0  0  0  0999 V2000
    2.1316   -2.4613    0.0000 C   0  0  0  0  0  0  0  0  0  0  0  0
    1.3816   -1.1623    0.0000 C   0  0  0  0  0  0  0  0  0  0  0  0
    2.1316    0.1367    0.0000 C   0  0  0  0  0  0  0  0  0  0  0  0
    3.6315    0.1367    0.0000 N   0  0  0  0  0  0  0  0  0  0  0  0
    4.3817    1.4358    0.0000 C   0  0  0  0  0  0  0  0  0  0  0  0
    5.8816    1.4358    0.0000 C   0  0  0  0  0  0  0  0  0  0  0  0
    6.6316    2.7348    0.0000 O   0  0  0  0  0  0  0  0  0  0  0  0
    6.6316    0.1367    0.0000 N   0  0  0  0  0  0  0  0  0  0  0  0
    5.8816   -1.1623    0.0000 C   0  0  0  0  0  0  0  0  0  0  0  0
    6.6316   -2.4613    0.0000 O   0  0  0  0  0  0  0  0  0  0  0  0
    4.3817   -1.1623    0.0000 C   0  0  0  0  0  0  0  0  0  0  0  0
   -0.1183   -1.1623    0.0000 N   0  0  0  0  0  0  0  0  0  0  0  0
   -0.8685    0.1367    0.0000 C   0  0  0  0  0  0  0  0  0  0  0  0
   -2.3684    0.1367    0.0000 C   0  0  0  0  0  0  0  0  0  0  0  0
   -3.1184    1.4358    0.0000 O   0  0  0  0  0  0  0  0  0  0  0  0
   -3.1184   -1.1623    0.0000 N   0  0  0  0  0  0  0  0  0  0  0  0
   -2.3684   -2.4613    0.0000 C   0  0  0  0  0  0  0  0  0  0  0  0
   -3.1184   -3.7604    0.0000 O   0  0  0  0  0  0  0  0  0  0  0  0
   -0.8685   -2.4613    0.0000 C   0  0  0  0  0  0  0  0  0  0  0  0
  1  2  1  0  0  0  0
  2  3  1  0  0  0  0
  2 12  1  0  0  0  0
  3  4  1  0  0  0  0
  5  4  1  0  0  0  0
  4 11  1  0  0  0  0
  6  5  1  0  0  0  0
  6  7  2  0  0  0  0
  8  6  1  0  0  0  0
  9  8  1  0  0  0  0
  9 10  2  0  0  0  0
 11  9  1  0  0  0  0
 13 12  1  0  0  0  0
 12 19  1  0  0  0  0
 14 13  1  0  0  0  0
 14 15  2  0  0  0  0
 16 14  1  0  0  0  0
 17 16  1  0  0  0  0
 17 18  2  0  0  0  0
 19 17  1  0  0  0  0
M  END
> <Inchi_key>
BMKDZUISNHGIBY-UHFFFAOYSA-N

> <Source>
Mulliner , Kotsampasakou

> <ID>
EK0155;HT0626

> <H_MFHB>
0

> <CAS>


> <Cholestasis>
0

> <Name>
dexrazoxane hydrochloride;dexrazoxane

> <Class>
0

$$$$