
  -INDIGO-08031710012D

 18 18  0  0  0  0  0  0  0  0999 V2000
    0.0000   -0.0000    0.0000 N   0  0  0  0  0  0  0  0  0  0  0  0
    1.5000   -0.0000    0.0000 C   0  0  0  0  0  0  0  0  0  0  0  0
    2.2500   -1.2990    0.0000 N   0  0  0  0  0  0  0  0  0  0  0  0
    3.7501   -1.2990    0.0000 C   0  0  0  0  0  0  0  0  0  0  0  0
    4.5001   -2.5981    0.0000 O   0  0  0  0  0  0  0  0  0  0  0  0
    4.5001   -0.0000    0.0000 N   0  0  0  0  0  0  0  0  0  0  0  0
    6.0001   -0.0000    0.0000 C   0  0  0  0  0  0  0  0  0  0  0  0
    6.7499    1.2990    0.0000 C   0  0  0  0  0  0  0  0  0  0  0  0
    6.0001    2.5981    0.0000 C   0  0  0  0  0  0  0  0  0  0  0  0
    6.7499    3.8971    0.0000 O   0  0  0  0  0  0  0  0  0  0  0  0
    8.2499    1.2990    0.0000 O   0  0  0  0  0  0  0  0  0  0  0  0
    9.0000   -0.0000    0.0000 C   0  0  0  0  0  0  0  0  0  0  0  0
   10.5000   -0.0000    0.0000 P   0  0  0  0  0  0  0  0  0  0  0  0
   10.5000    1.5000    0.0000 O   0  0  0  0  0  0  0  0  0  0  0  0
   10.5000   -1.5000    0.0000 O   0  0  0  0  0  0  0  0  0  0  0  0
   12.0000   -0.0000    0.0000 O   0  0  0  0  0  0  0  0  0  0  0  0
    3.7501    1.2990    0.0000 C   0  0  0  0  0  0  0  0  0  0  0  0
    2.2500    1.2990    0.0000 C   0  0  0  0  0  0  0  0  0  0  0  0
  1  2  1  0  0  0  0
  3  2  2  0  0  0  0
  2 18  1  0  0  0  0
  4  3  1  0  0  0  0
  4  5  2  0  0  0  0
  6  4  1  0  0  0  0
  6  7  1  0  0  0  0
 17  6  1  0  0  0  0
  7  8  1  0  0  0  0
  8  9  1  0  0  0  0
  8 11  1  0  0  0  0
  9 10  1  0  0  0  0
 11 12  1  0  0  0  0
 12 13  1  0  0  0  0
 13 14  2  0  0  0  0
 13 15  1  0  0  0  0
 13 16  1  0  0  0  0
 18 17  2  0  0  0  0
M  END
> <Inchi_key>
VWFCHDSQECPREK-UHFFFAOYSA-N

> <Source>
Mulliner

> <ID>
HT0481

> <H_MFHB>
0

> <CAS>


> <Cholestasis>


> <Name>
cidofovir

> <Class>
0

$$$$