

  -INDIGO-08031710012D

 24 28  0  0  0  0  0  0  0  0999 V2000
   -0.0736    0.3456    0.0000 O   0  0  0  0  0  0  0  0  0  0  0  0
    1.4234    0.2493    0.0000 C   0  0  0  0  0  0  0  0  0  0  0  0
    2.0894   -1.1065    0.0000 C   0  0  0  0  0  0  0  0  0  0  0  0
    3.6555   -1.1949    0.0000 C   0  0  0  0  0  0  0  0  0  0  0  0
    5.4424   -1.5790    0.0000 C   0  0  0  0  0  0  0  0  0  0  0  0
    6.2886    0.0444    0.0000 C   0  0  0  0  0  0  0  0  0  0  0  0
    7.5075    1.0340    0.0000 N   0  0  0  0  0  0  0  0  0  0  0  0
    8.8975    0.4700    0.0000 C   0  0  0  0  0  0  0  0  0  0  0  0
   10.0808    1.3918    0.0000 C   0  0  0  0  0  0  0  0  0  0  0  0
   11.4708    0.8279    0.0000 C   0  0  0  0  0  0  0  0  0  0  0  0
    7.3332    2.5021    0.0000 C   0  0  0  0  0  0  0  0  0  0  0  0
    5.8743    3.0638    0.0000 C   0  0  0  0  0  0  0  0  0  0  0  0
    4.5595    2.0487    0.0000 C   0  0  0  0  0  0  0  0  0  0  0  0
    4.3856    3.3934    0.0000 C   0  0  0  0  0  0  0  0  0  0  0  0
    2.6954    3.2316    0.0000 O   0  0  0  0  0  0  0  0  0  0  0  0
    2.3033    1.5772    0.0000 C   0  0  0  0  0  0  0  0  0  0  0  0
    3.6657    1.3411    0.0000 C   0  0  0  0  0  0  0  0  0  0  0  0
    4.3974    0.0568    0.0000 C   0  0  0  0  0  0  0  0  0  0  0  0
    5.8967    3.9069    0.0000 C   0  0  0  0  0  0  0  0  0  0  0  0
    6.1632    5.3831    0.0000 O   0  0  0  0  0  0  0  0  0  0  0  0
    7.0493    2.9694    0.0000 C   0  0  0  0  0  0  0  0  0  0  0  0
    6.7327    1.4321    0.0000 C   0  0  0  0  0  0  0  0  0  0  0  0
    5.1530    0.8674    0.0000 C   0  0  0  0  0  0  0  0  0  0  0  0
    5.1678   -0.6324    0.0000 O   0  0  0  0  0  0  0  0  0  0  0  0
  1  2  1  0  0  0  0
  3  2  2  0  0  0  0
  2 16  1  0  0  0  0
  4  3  1  0  0  0  0
  4  5  1  0  0  0  0
 18  4  2  0  0  0  0
  5  6  1  0  0  0  0
  7  6  1  0  0  0  0
  6 23  1  0  0  0  0
  7  8  1  0  0  0  0
 11  7  1  0  0  0  0
  8  9  1  0  0  0  0
  9 10  2  0  0  0  0
 12 11  1  0  0  0  0
 13 12  1  0  0  0  0
 14 13  1  0  0  0  0
 13 17  1  0  0  0  0
 13 23  1  0  0  0  0
 14 15  1  0  0  0  0
 19 14  1  0  0  0  0
 15 16  1  0  0  0  0
 16 17  2  0  0  0  0
 17 18  1  0  0  0  0
 19 20  2  0  0  0  0
 21 19  1  0  0  0  0
 22 21  1  0  0  0  0
 23 22  1  0  0  0  0
 23 24  1  0  0  0  0
M  END
> <Inchi_key>
XMLRJNYBWPMGFN-UHFFFAOYSA-N

> <Source>
Mulliner

> <ID>
HT3495

> <H_MFHB>
0

> <CAS>


> <Cholestasis>


> <Name>


> <Class>
0


$$$$