

  -INDIGO-08031710012D

 21 21  0  0  0  0  0  0  0  0999 V2000
   11.6100    3.1109    0.0000 C   0  0  0  0  0  0  0  0  0  0  0  0
   10.3109    2.3609    0.0000 S   0  0  0  0  0  0  0  0  0  0  0  0
   11.0610    1.0619    0.0000 O   0  0  0  0  0  0  0  0  0  0  0  0
    9.5610    3.6599    0.0000 O   0  0  0  0  0  0  0  0  0  0  0  0
    9.0119    1.6109    0.0000 C   0  0  0  0  0  0  0  0  0  0  0  0
    7.7128    2.3609    0.0000 C   0  0  0  0  0  0  0  0  0  0  0  0
    6.4139    1.6109    0.0000 C   0  0  0  0  0  0  0  0  0  0  0  0
    6.4139    0.1109    0.0000 C   0  0  0  0  0  0  0  0  0  0  0  0
    7.7128   -0.6391    0.0000 C   0  0  0  0  0  0  0  0  0  0  0  0
    9.0119    0.1109    0.0000 C   0  0  0  0  0  0  0  0  0  0  0  0
    5.1149   -0.6391    0.0000 C   0  0  0  0  0  0  0  0  0  0  0  0
    5.1149   -2.1391    0.0000 O   0  0  0  0  0  0  0  0  0  0  0  0
    3.8158    0.1109    0.0000 C   0  0  0  0  0  0  0  0  0  0  0  0
    2.5168   -0.6391    0.0000 C   0  0  0  0  0  0  0  0  0  0  0  0
    2.5168   -2.1391    0.0000 O   0  0  0  0  0  0  0  0  0  0  0  0
    3.8158    1.6109    0.0000 N   0  0  0  0  0  0  0  0  0  0  0  0
    2.5168    2.3609    0.0000 C   0  0  0  0  0  0  0  0  0  0  0  0
    1.2177    1.6109    0.0000 O   0  0  0  0  0  0  0  0  0  0  0  0
    2.5168    3.8609    0.0000 C   0  0  0  0  0  0  0  0  0  0  0  0
    3.8158    4.6109    0.0000 Cl  0  0  0  0  0  0  0  0  0  0  0  0
    1.2177    4.6109    0.0000 Cl  0  0  0  0  0  0  0  0  0  0  0  0
  1  2  1  0  0  0  0
  2  3  2  0  0  0  0
  2  4  2  0  0  0  0
  2  5  1  0  0  0  0
  6  5  2  0  0  0  0
  5 10  1  0  0  0  0
  7  6  1  0  0  0  0
  8  7  2  0  0  0  0
  9  8  1  0  0  0  0
  8 11  1  0  0  0  0
 10  9  2  0  0  0  0
 11 12  1  0  0  0  0
 11 13  1  0  0  0  0
 13 14  1  0  0  0  0
 13 16  1  0  0  0  0
 14 15  1  0  0  0  0
 16 17  1  0  0  0  0
 17 18  2  0  0  0  0
 17 19  1  0  0  0  0
 19 20  1  0  0  0  0
 19 21  1  0  0  0  0
M  END
> <Inchi_key>
OTVAEFIXJLOWRX-UHFFFAOYSA-N

> <Source>
Mulliner

> <ID>
HT2037

> <H_MFHB>
0

> <CAS>
15318-45-3

> <Cholestasis>


> <Name>
thiamphenicol

> <Class>
0


$$$$