
  -INDIGO-08031710012D

 19 20  0  0  0  0  0  0  0  0999 V2000
   12.5213   -4.3024    0.0000 C   0  0  0  0  0  0  0  0  0  0  0  0
   11.2222   -5.0524    0.0000 O   0  0  0  0  0  0  0  0  0  0  0  0
    9.9232   -4.3024    0.0000 C   0  0  0  0  0  0  0  0  0  0  0  0
    8.6241   -5.0524    0.0000 C   0  0  0  0  0  0  0  0  0  0  0  0
    7.3251   -4.3024    0.0000 C   0  0  0  0  0  0  0  0  0  0  0  0
    7.3251   -2.8024    0.0000 C   0  0  0  0  0  0  0  0  0  0  0  0
    6.0262   -2.0524    0.0000 N   0  0  0  0  0  0  0  0  0  0  0  0
    4.7271   -2.8024    0.0000 S   0  0  0  0  0  0  0  0  0  0  0  0
    3.9770   -1.5034    0.0000 O   0  0  0  0  0  0  0  0  0  0  0  0
    5.4769   -4.1015    0.0000 O   0  0  0  0  0  0  0  0  0  0  0  0
    3.4279   -3.5524    0.0000 C   0  0  0  0  0  0  0  0  0  0  0  0
    3.4279   -5.0524    0.0000 C   0  0  0  0  0  0  0  0  0  0  0  0
    2.1290   -5.8024    0.0000 C   0  0  0  0  0  0  0  0  0  0  0  0
    0.8298   -5.0524    0.0000 C   0  0  0  0  0  0  0  0  0  0  0  0
   -0.4691   -5.8024    0.0000 N   0  0  0  0  0  0  0  0  0  0  0  0
    0.8298   -3.5524    0.0000 C   0  0  0  0  0  0  0  0  0  0  0  0
    2.1290   -2.8024    0.0000 C   0  0  0  0  0  0  0  0  0  0  0  0
    8.6241   -2.0524    0.0000 N   0  0  0  0  0  0  0  0  0  0  0  0
    9.9232   -2.8024    0.0000 N   0  0  0  0  0  0  0  0  0  0  0  0
  1  2  1  0  0  0  0
  2  3  1  0  0  0  0
  4  3  2  0  0  0  0
  3 19  1  0  0  0  0
  5  4  1  0  0  0  0
  6  5  2  0  0  0  0
  6  7  1  0  0  0  0
 18  6  1  0  0  0  0
  7  8  1  0  0  0  0
  8  9  2  0  0  0  0
  8 10  2  0  0  0  0
  8 11  1  0  0  0  0
 12 11  2  0  0  0  0
 11 17  1  0  0  0  0
 13 12  1  0  0  0  0
 14 13  2  0  0  0  0
 14 15  1  0  0  0  0
 16 14  1  0  0  0  0
 17 16  2  0  0  0  0
 19 18  2  0  0  0  0
M  END
> <Inchi_key>
VLYWMPOKSSWJAL-UHFFFAOYSA-N

> <Source>
Mulliner

> <ID>
HT1946

> <H_MFHB>
0

> <CAS>


> <Cholestasis>


> <Name>
sulfamethoxypyridazine

> <Class>
0

$$$$