
  -INDIGO-08031710012D

 35 39  0  0  0  0  0  0  0  0999 V2000
    0.5315    1.9690    0.0000 C   0  0  0  0  0  0  0  0  0  0  0  0
    1.9648    1.5261    0.0000 C   0  0  0  0  0  0  0  0  0  0  0  0
    2.4490    0.1065    0.0000 C   0  0  0  0  0  0  0  0  0  0  0  0
    1.5850   -1.1197    0.0000 C   0  0  0  0  0  0  0  0  0  0  0  0
    0.0911   -0.9847    0.0000 C   0  0  0  0  0  0  0  0  0  0  0  0
   -0.7729   -2.2107    0.0000 C   0  0  0  0  0  0  0  0  0  0  0  0
   -0.1427   -3.5721    0.0000 C   0  0  0  0  0  0  0  0  0  0  0  0
   -1.0067   -4.7983    0.0000 O   0  0  0  0  0  0  0  0  0  0  0  0
    1.3511   -3.7073    0.0000 C   0  0  0  0  0  0  0  0  0  0  0  0
    2.2151   -2.4811    0.0000 C   0  0  0  0  0  0  0  0  0  0  0  0
    3.9488    0.1283    0.0000 N   0  0  0  0  0  0  0  0  0  0  0  0
    4.8482   -1.0722    0.0000 C   0  0  0  0  0  0  0  0  0  0  0  0
    6.3374   -0.8936    0.0000 C   0  0  0  0  0  0  0  0  0  0  0  0
    6.9276    0.4854    0.0000 C   0  0  0  0  0  0  0  0  0  0  0  0
    8.4169    0.6638    0.0000 C   0  0  0  0  0  0  0  0  0  0  0  0
    9.3160   -0.5367    0.0000 C   0  0  0  0  0  0  0  0  0  0  0  0
   10.8055   -0.3583    0.0000 O   0  0  0  0  0  0  0  0  0  0  0  0
   11.7046   -1.5588    0.0000 C   0  0  0  0  0  0  0  0  0  0  0  0
   13.1939   -1.3804    0.0000 C   0  0  0  0  0  0  0  0  0  0  0  0
   14.0933   -2.5809    0.0000 N   0  0  0  0  0  0  0  0  0  0  0  0
   13.4015   -3.9117    0.0000 C   0  0  0  0  0  0  0  0  0  0  0  0
   14.0122   -5.2819    0.0000 C   0  0  0  0  0  0  0  0  0  0  0  0
   15.4642   -5.6590    0.0000 C   0  0  0  0  0  0  0  0  0  0  0  0
   16.6647   -4.7597    0.0000 C   0  0  0  0  0  0  0  0  0  0  0  0
   16.7096   -3.2607    0.0000 C   0  0  0  0  0  0  0  0  0  0  0  0
   15.5650   -2.2913    0.0000 C   0  0  0  0  0  0  0  0  0  0  0  0
    8.7261   -1.9157    0.0000 C   0  0  0  0  0  0  0  0  0  0  0  0
    7.2366   -2.0943    0.0000 C   0  0  0  0  0  0  0  0  0  0  0  0
    4.3916    1.5617    0.0000 C   0  0  0  0  0  0  0  0  0  0  0  0
    5.7527    2.1915    0.0000 C   0  0  0  0  0  0  0  0  0  0  0  0
    5.8879    3.6855    0.0000 C   0  0  0  0  0  0  0  0  0  0  0  0
    4.6617    4.5494    0.0000 C   0  0  0  0  0  0  0  0  0  0  0  0
    4.7968    6.0433    0.0000 O   0  0  0  0  0  0  0  0  0  0  0  0
    3.3005    3.9194    0.0000 C   0  0  0  0  0  0  0  0  0  0  0  0
    3.1654    2.4256    0.0000 C   0  0  0  0  0  0  0  0  0  0  0  0
  1  2  1  0  0  0  0
  3  2  2  0  0  0  0
  2 35  1  0  0  0  0
  3  4  1  0  0  0  0
 11  3  1  0  0  0  0
  5  4  2  0  0  0  0
  4 10  1  0  0  0  0
  6  5  1  0  0  0  0
  7  6  2  0  0  0  0
  7  8  1  0  0  0  0
  9  7  1  0  0  0  0
 10  9  2  0  0  0  0
 11 12  1  0  0  0  0
 29 11  1  0  0  0  0
 12 13  1  0  0  0  0
 14 13  2  0  0  0  0
 13 28  1  0  0  0  0
 15 14  1  0  0  0  0
 16 15  2  0  0  0  0
 16 17  1  0  0  0  0
 27 16  1  0  0  0  0
 17 18  1  0  0  0  0
 18 19  1  0  0  0  0
 19 20  1  0  0  0  0
 21 20  1  0  0  0  0
 20 26  1  0  0  0  0
 22 21  1  0  0  0  0
 23 22  1  0  0  0  0
 24 23  1  0  0  0  0
 25 24  1  0  0  0  0
 26 25  1  0  0  0  0
 28 27  2  0  0  0  0
 30 29  1  0  0  0  0
 29 35  2  0  0  0  0
 31 30  2  0  0  0  0
 32 31  1  0  0  0  0
 32 33  1  0  0  0  0
 34 32  2  0  0  0  0
 35 34  1  0  0  0  0
M  END
> <Inchi_key>
UCJGJABZCDBEDK-UHFFFAOYSA-N

> <Source>
Mulliner

> <ID>
HT0229

> <H_MFHB>
0

> <CAS>


> <Cholestasis>


> <Name>
bazedoxifene acetate

> <Class>
0

$$$$