

  -INDIGO-08031710012D

 28 30  0  0  0  0  0  0  0  0999 V2000
   -1.2240   -9.1653    0.0000 C   0  0  0  0  0  0  0  0  0  0  0  0
   -0.4740   -7.8663    0.0000 C   0  0  0  0  0  0  0  0  0  0  0  0
   -1.2240   -6.5673    0.0000 O   0  0  0  0  0  0  0  0  0  0  0  0
    1.0261   -7.8663    0.0000 O   0  0  0  0  0  0  0  0  0  0  0  0
    1.7759   -6.5673    0.0000 C   0  0  0  0  0  0  0  0  0  0  0  0
    3.2760   -6.5673    0.0000 C   0  0  0  0  0  0  0  0  0  0  0  0
    4.0260   -5.2682    0.0000 C   0  0  0  0  0  0  0  0  0  0  0  0
    5.5261   -5.2682    0.0000 N   0  0  0  0  0  0  0  0  0  0  0  0
    6.2761   -6.5673    0.0000 C   0  0  0  0  0  0  0  0  0  0  0  0
    5.5261   -7.8663    0.0000 S   0  0  0  0  0  0  0  0  0  0  0  0
    4.0260   -7.8663    0.0000 C   0  0  0  0  0  0  0  0  0  0  0  0
    7.5750   -5.8173    0.0000 C   0  0  0  0  0  0  0  0  0  0  0  0
    9.0241   -6.2055    0.0000 N   0  0  0  0  0  0  0  0  0  0  0  0
   10.0845   -5.1448    0.0000 C   0  0  0  0  0  0  0  0  0  0  0  0
    9.6965   -3.6959    0.0000 O   0  0  0  0  0  0  0  0  0  0  0  0
   11.5336   -5.5331    0.0000 C   0  0  0  0  0  0  0  0  0  0  0  0
   12.5941   -4.4724    0.0000 S   0  0  0  0  0  0  0  0  0  0  0  0
   14.0432   -4.8606    0.0000 C   0  0  0  0  0  0  0  0  0  0  0  0
   15.1037   -3.8000    0.0000 C   0  0  0  0  0  0  0  0  0  0  0  0
   16.5525   -4.1882    0.0000 C   0  0  0  0  0  0  0  0  0  0  0  0
   16.9408   -5.6371    0.0000 N   0  0  0  0  0  0  0  0  0  0  0  0
   15.8803   -6.6978    0.0000 C   0  0  0  0  0  0  0  0  0  0  0  0
   14.4312   -6.3095    0.0000 C   0  0  0  0  0  0  0  0  0  0  0  0
    6.8252   -4.5182    0.0000 C   0  0  0  0  0  0  0  0  0  0  0  0
    7.2133   -3.0693    0.0000 O   0  0  0  0  0  0  0  0  0  0  0  0
    3.2760   -3.9692    0.0000 C   0  0  0  0  0  0  0  0  0  0  0  0
    1.7759   -3.9692    0.0000 O   0  0  0  0  0  0  0  0  0  0  0  0
    4.0260   -2.6702    0.0000 O   0  0  0  0  0  0  0  0  0  0  0  0
  1  2  1  0  0  0  0
  2  3  2  0  0  0  0
  2  4  1  0  0  0  0
  4  5  1  0  0  0  0
  5  6  1  0  0  0  0
  7  6  2  0  0  0  0
  6 11  1  0  0  0  0
  8  7  1  0  0  0  0
  7 26  1  0  0  0  0
  8  9  1  0  0  0  0
 24  8  1  0  0  0  0
 10  9  1  0  0  0  0
  9 12  1  0  0  0  0
 11 10  1  0  0  0  0
 12 13  1  0  0  0  0
 12 24  1  0  0  0  0
 13 14  1  0  0  0  0
 14 15  2  0  0  0  0
 14 16  1  0  0  0  0
 16 17  1  0  0  0  0
 17 18  1  0  0  0  0
 19 18  2  0  0  0  0
 18 23  1  0  0  0  0
 20 19  1  0  0  0  0
 21 20  2  0  0  0  0
 22 21  1  0  0  0  0
 23 22  2  0  0  0  0
 24 25  2  0  0  0  0
 26 27  2  0  0  0  0
 26 28  1  0  0  0  0
M  END
> <Inchi_key>
UQLLWWBDSUHNEB-UHFFFAOYSA-N

> <Source>
Mulliner , Kotsampasakou

> <ID>
EK0101;HT0434

> <H_MFHB>
0

> <CAS>


> <Cholestasis>
0

> <Name>
cephapirin sodium;cephapirin;cefapirin

> <Class>
0


$$$$