

  -INDIGO-08031710012D

 19 18  0  0  0  0  0  0  0  0999 V2000
   16.3593    4.3835    0.0000 C   0  0  0  0  0  0  0  0  0  0  0  0
   15.0602    3.6335    0.0000 C   0  0  0  0  0  0  0  0  0  0  0  0
   13.7612    4.3835    0.0000 C   0  0  0  0  0  0  0  0  0  0  0  0
   12.4621    3.6335    0.0000 C   0  0  0  0  0  0  0  0  0  0  0  0
   11.1632    4.3835    0.0000 N   0  0  0  0  0  0  0  0  0  0  0  0
    9.8640    3.6335    0.0000 C   0  0  0  0  0  0  0  0  0  0  0  0
    9.8640    2.1335    0.0000 O   0  0  0  0  0  0  0  0  0  0  0  0
    8.5649    4.3835    0.0000 O   0  0  0  0  0  0  0  0  0  0  0  0
    7.2660    3.6335    0.0000 C   0  0  0  0  0  0  0  0  0  0  0  0
    5.9671    4.3835    0.0000 C   0  0  0  0  0  0  0  0  0  0  0  0
    6.7170    5.6825    0.0000 C   0  0  0  0  0  0  0  0  0  0  0  0
    4.6679    5.1335    0.0000 C   0  0  0  0  0  0  0  0  0  0  0  0
    4.6679    6.6335    0.0000 C   0  0  0  0  0  0  0  0  0  0  0  0
    3.3688    7.3835    0.0000 C   0  0  0  0  0  0  0  0  0  0  0  0
    5.2169    3.0844    0.0000 C   0  0  0  0  0  0  0  0  0  0  0  0
    3.7169    3.0844    0.0000 O   0  0  0  0  0  0  0  0  0  0  0  0
    2.9670    1.7854    0.0000 C   0  0  0  0  0  0  0  0  0  0  0  0
    1.4670    1.7854    0.0000 O   0  0  0  0  0  0  0  0  0  0  0  0
    3.7169    0.4863    0.0000 N   0  0  0  0  0  0  0  0  0  0  0  0
  1  2  1  0  0  0  0
  2  3  1  0  0  0  0
  3  4  1  0  0  0  0
  4  5  1  0  0  0  0
  5  6  1  0  0  0  0
  6  7  2  0  0  0  0
  6  8  1  0  0  0  0
  8  9  1  0  0  0  0
  9 10  1  0  0  0  0
 10 11  1  0  0  0  0
 10 12  1  0  0  0  0
 10 15  1  0  0  0  0
 12 13  1  0  0  0  0
 13 14  1  0  0  0  0
 15 16  1  0  0  0  0
 16 17  1  0  0  0  0
 17 18  2  0  0  0  0
 17 19  1  0  0  0  0
M  END
> <Inchi_key>
PRBORDFJHHAISJ-UHFFFAOYSA-N

> <Source>
Mulliner

> <ID>
HT3222

> <H_MFHB>
0

> <CAS>


> <Cholestasis>


> <Name>


> <Class>
0


$$$$