
  -INDIGO-08031710012D

 26 28  0  0  0  0  0  0  0  0999 V2000
   -2.6228   -7.5075    0.0000 N   0  0  0  0  0  0  0  0  0  0  0  0
   -4.0969   -7.2299    0.0000 C   0  0  0  0  0  0  0  0  0  0  0  0
   -5.0744   -8.3677    0.0000 O   0  0  0  0  0  0  0  0  0  0  0  0
   -4.5935   -5.8145    0.0000 C   0  0  0  0  0  0  0  0  0  0  0  0
   -6.0306   -5.3844    0.0000 C   0  0  0  0  0  0  0  0  0  0  0  0
   -6.0656   -3.8847    0.0000 C   0  0  0  0  0  0  0  0  0  0  0  0
   -4.6503   -3.3881    0.0000 C   0  0  0  0  0  0  0  0  0  0  0  0
   -3.7404   -4.5808    0.0000 N   0  0  0  0  0  0  0  0  0  0  0  0
   -2.2408   -4.5459    0.0000 C   0  0  0  0  0  0  0  0  0  0  0  0
   -1.4608   -5.8270    0.0000 O   0  0  0  0  0  0  0  0  0  0  0  0
   -1.5213   -3.2296    0.0000 C   0  0  0  0  0  0  0  0  0  0  0  0
   -2.3013   -1.9483    0.0000 C   0  0  0  0  0  0  0  0  0  0  0  0
   -1.5819   -0.6321    0.0000 C   0  0  0  0  0  0  0  0  0  0  0  0
   -2.2237    0.7235    0.0000 C   0  0  0  0  0  0  0  0  0  0  0  0
   -1.1328    1.7529    0.0000 N   0  0  0  0  0  0  0  0  0  0  0  0
    0.1834    1.0334    0.0000 C   0  0  0  0  0  0  0  0  0  0  0  0
   -0.0942   -0.4406    0.0000 N   0  0  0  0  0  0  0  0  0  0  0  0
   -0.0217   -3.1946    0.0000 N   0  0  0  0  0  0  0  0  0  0  0  0
    0.7583   -4.4757    0.0000 C   0  0  0  0  0  0  0  0  0  0  0  0
    0.0389   -5.7920    0.0000 O   0  0  0  0  0  0  0  0  0  0  0  0
    2.2580   -4.4408    0.0000 C   0  0  0  0  0  0  0  0  0  0  0  0
    3.1111   -3.2071    0.0000 C   0  0  0  0  0  0  0  0  0  0  0  0
    4.5481   -3.6372    0.0000 C   0  0  0  0  0  0  0  0  0  0  0  0
    4.5831   -5.1369    0.0000 C   0  0  0  0  0  0  0  0  0  0  0  0
    5.8168   -5.9899    0.0000 O   0  0  0  0  0  0  0  0  0  0  0  0
    3.1676   -5.6335    0.0000 N   0  0  0  0  0  0  0  0  0  0  0  0
  1  2  1  0  0  0  0
  2  3  2  0  0  0  0
  2  4  1  0  0  0  0
  5  4  1  0  0  0  0
  4  8  1  0  0  0  0
  6  5  1  0  0  0  0
  7  6  1  0  0  0  0
  8  7  1  0  0  0  0
  8  9  1  0  0  0  0
  9 10  2  0  0  0  0
  9 11  1  0  0  0  0
 11 12  1  0  0  0  0
 11 18  1  0  0  0  0
 12 13  1  0  0  0  0
 14 13  2  0  0  0  0
 13 17  1  0  0  0  0
 15 14  1  0  0  0  0
 16 15  1  0  0  0  0
 17 16  2  0  0  0  0
 18 19  1  0  0  0  0
 19 20  2  0  0  0  0
 19 21  1  0  0  0  0
 22 21  1  0  0  0  0
 21 26  1  0  0  0  0
 23 22  1  0  0  0  0
 24 23  1  0  0  0  0
 24 25  2  0  0  0  0
 26 24  1  0  0  0  0
M  END
> <Inchi_key>
XNSAINXGIQZQOO-UHFFFAOYSA-N

> <Source>
Mulliner

> <ID>
HT2050

> <H_MFHB>
0

> <CAS>


> <Cholestasis>


> <Name>
thyrotropin

> <Class>
0

$$$$