

  -INDIGO-08031710012D

 25 28  0  0  0  0  0  0  0  0999 V2000
    0.8438    1.8095    0.0000 O   0  0  0  0  0  0  0  0  0  0  0  0
    1.8080    0.6604    0.0000 C   0  0  0  0  0  0  0  0  0  0  0  0
    1.2949   -0.7491    0.0000 O   0  0  0  0  0  0  0  0  0  0  0  0
    3.2852    0.9208    0.0000 C   0  0  0  0  0  0  0  0  0  0  0  0
    3.2852    2.4209    0.0000 C   0  0  0  0  0  0  0  0  0  0  0  0
    4.5842    3.1709    0.0000 C   0  0  0  0  0  0  0  0  0  0  0  0
    5.8833    2.4209    0.0000 C   0  0  0  0  0  0  0  0  0  0  0  0
    5.8833    0.9208    0.0000 C   0  0  0  0  0  0  0  0  0  0  0  0
    4.5842    0.1708    0.0000 C   0  0  0  0  0  0  0  0  0  0  0  0
    5.0972   -1.2386    0.0000 C   0  0  0  0  0  0  0  0  0  0  0  0
    6.5972   -1.2386    0.0000 C   0  0  0  0  0  0  0  0  0  0  0  0
    7.3472    0.0605    0.0000 C   0  0  0  0  0  0  0  0  0  0  0  0
    8.8472    0.0605    0.0000 C   0  0  0  0  0  0  0  0  0  0  0  0
    9.5972   -1.2386    0.0000 C   0  0  0  0  0  0  0  0  0  0  0  0
   11.0972   -1.2386    0.0000 O   0  0  0  0  0  0  0  0  0  0  0  0
    8.8472   -2.5377    0.0000 C   0  0  0  0  0  0  0  0  0  0  0  0
    7.3472   -2.5377    0.0000 C   0  0  0  0  0  0  0  0  0  0  0  0
    6.5972   -3.8366    0.0000 O   0  0  0  0  0  0  0  0  0  0  0  0
    5.0972   -3.8366    0.0000 C   0  0  0  0  0  0  0  0  0  0  0  0
    4.3472   -5.1357    0.0000 C   0  0  0  0  0  0  0  0  0  0  0  0
    2.8472   -5.1357    0.0000 C   0  0  0  0  0  0  0  0  0  0  0  0
    2.0972   -6.4348    0.0000 O   0  0  0  0  0  0  0  0  0  0  0  0
    2.0972   -3.8366    0.0000 C   0  0  0  0  0  0  0  0  0  0  0  0
    2.8472   -2.5377    0.0000 C   0  0  0  0  0  0  0  0  0  0  0  0
    4.3472   -2.5377    0.0000 C   0  0  0  0  0  0  0  0  0  0  0  0
  1  2  1  0  0  0  0
  2  3  2  0  0  0  0
  2  4  1  0  0  0  0
  5  4  2  0  0  0  0
  4  9  1  0  0  0  0
  6  5  1  0  0  0  0
  7  6  2  0  0  0  0
  8  7  1  0  0  0  0
  9  8  2  0  0  0  0
  9 10  1  0  0  0  0
 11 10  2  0  0  0  0
 10 25  1  0  0  0  0
 12 11  1  0  0  0  0
 11 17  1  0  0  0  0
 13 12  2  0  0  0  0
 14 13  1  0  0  0  0
 14 15  2  0  0  0  0
 16 14  1  0  0  0  0
 17 16  2  0  0  0  0
 18 17  1  0  0  0  0
 19 18  1  0  0  0  0
 20 19  1  0  0  0  0
 19 25  2  0  0  0  0
 21 20  2  0  0  0  0
 21 22  1  0  0  0  0
 23 21  1  0  0  0  0
 24 23  2  0  0  0  0
 25 24  1  0  0  0  0
M  END
> <Inchi_key>
YKGGGCXBWXHKIZ-UHFFFAOYSA-N

> <Source>
Mulliner

> <ID>
HT0907

> <H_MFHB>
0

> <CAS>


> <Cholestasis>


> <Name>
fluorescein sodium

> <Class>
0


$$$$