
  -INDIGO-08031710012D

 25 27  0  0  0  0  0  0  0  0999 V2000
   15.0448    0.0001    0.0000 Cl  0  0  0  0  0  0  0  0  0  0  0  0
   13.5447    0.0001    0.0000 C   0  0  0  0  0  0  0  0  0  0  0  0
   12.7949   -1.2990    0.0000 C   0  0  0  0  0  0  0  0  0  0  0  0
   11.2948   -1.2990    0.0000 C   0  0  0  0  0  0  0  0  0  0  0  0
   10.5448    0.0001    0.0000 C   0  0  0  0  0  0  0  0  0  0  0  0
    9.0447    0.0001    0.0000 C   0  0  0  0  0  0  0  0  0  0  0  0
    8.2949    1.2990    0.0000 C   0  0  0  0  0  0  0  0  0  0  0  0
    6.7948    1.2990    0.0000 C   0  0  0  0  0  0  0  0  0  0  0  0
    6.0448    2.5981    0.0000 C   0  0  0  0  0  0  0  0  0  0  0  0
    6.7948    3.8970    0.0000 N   0  0  0  0  0  0  0  0  0  0  0  0
    8.2867    4.0539    0.0000 C   0  0  0  0  0  0  0  0  0  0  0  0
    8.5985    5.5211    0.0000 C   0  0  0  0  0  0  0  0  0  0  0  0
    7.2993    6.2711    0.0000 N   0  0  0  0  0  0  0  0  0  0  0  0
    6.1847    5.2675    0.0000 C   0  0  0  0  0  0  0  0  0  0  0  0
    6.0448    0.0001    0.0000 S   0  0  0  0  0  0  0  0  0  0  0  0
    4.5447    0.0001    0.0000 C   0  0  0  0  0  0  0  0  0  0  0  0
    3.7949    1.2990    0.0000 C   0  0  0  0  0  0  0  0  0  0  0  0
    4.5447    2.5981    0.0000 Cl  0  0  0  0  0  0  0  0  0  0  0  0
    2.2948    1.2990    0.0000 C   0  0  0  0  0  0  0  0  0  0  0  0
    1.5448    0.0001    0.0000 C   0  0  0  0  0  0  0  0  0  0  0  0
    2.2948   -1.2990    0.0000 C   0  0  0  0  0  0  0  0  0  0  0  0
    3.7949   -1.2990    0.0000 C   0  0  0  0  0  0  0  0  0  0  0  0
    4.5447   -2.5981    0.0000 Cl  0  0  0  0  0  0  0  0  0  0  0  0
   11.2948    1.2990    0.0000 C   0  0  0  0  0  0  0  0  0  0  0  0
   12.7949    1.2990    0.0000 C   0  0  0  0  0  0  0  0  0  0  0  0
  1  2  1  0  0  0  0
  3  2  2  0  0  0  0
  2 25  1  0  0  0  0
  4  3  1  0  0  0  0
  5  4  2  0  0  0  0
  5  6  1  0  0  0  0
 24  5  1  0  0  0  0
  6  7  1  0  0  0  0
  7  8  1  0  0  0  0
  8  9  1  0  0  0  0
  8 15  1  0  0  0  0
  9 10  1  0  0  0  0
 11 10  1  0  0  0  0
 10 14  1  0  0  0  0
 12 11  2  0  0  0  0
 13 12  1  0  0  0  0
 14 13  2  0  0  0  0
 15 16  1  0  0  0  0
 17 16  2  0  0  0  0
 16 22  1  0  0  0  0
 17 18  1  0  0  0  0
 19 17  1  0  0  0  0
 20 19  2  0  0  0  0
 21 20  1  0  0  0  0
 22 21  2  0  0  0  0
 22 23  1  0  0  0  0
 25 24  2  0  0  0  0
M  END
> <Inchi_key>
SWLMUYACZKCSHZ-UHFFFAOYSA-N

> <Source>
Mulliner , Kotsampasakou

> <ID>
EK0079;HT0340

> <H_MFHB>
0

> <CAS>


> <Cholestasis>
0

> <Name>
butoconazole;butoconazole nitrate

> <Class>
0

$$$$