
  -INDIGO-08031710012D

 16 16  0  0  0  0  0  0  0  0999 V2000
   12.7480   -4.5408    0.0000 C   0  0  0  0  0  0  0  0  0  0  0  0
   11.4489   -5.2908    0.0000 C   0  0  0  0  0  0  0  0  0  0  0  0
   10.1500   -4.5408    0.0000 C   0  0  0  0  0  0  0  0  0  0  0  0
    8.8509   -5.2908    0.0000 O   0  0  0  0  0  0  0  0  0  0  0  0
    7.5518   -4.5408    0.0000 C   0  0  0  0  0  0  0  0  0  0  0  0
    7.5518   -3.0408    0.0000 O   0  0  0  0  0  0  0  0  0  0  0  0
    6.2528   -5.2908    0.0000 C   0  0  0  0  0  0  0  0  0  0  0  0
    4.9537   -4.5408    0.0000 N   0  0  0  0  0  0  0  0  0  0  0  0
    4.9537   -3.0408    0.0000 C   0  0  0  0  0  0  0  0  0  0  0  0
    3.6546   -2.2908    0.0000 C   0  0  0  0  0  0  0  0  0  0  0  0
    3.6546   -0.7908    0.0000 I   0  0  0  0  0  0  0  0  0  0  0  0
    2.3555   -3.0408    0.0000 C   0  0  0  0  0  0  0  0  0  0  0  0
    1.0566   -2.2908    0.0000 O   0  0  0  0  0  0  0  0  0  0  0  0
    2.3555   -4.5408    0.0000 C   0  0  0  0  0  0  0  0  0  0  0  0
    3.6546   -5.2908    0.0000 C   0  0  0  0  0  0  0  0  0  0  0  0
    1.0566   -5.2908    0.0000 I   0  0  0  0  0  0  0  0  0  0  0  0
  1  2  1  0  0  0  0
  2  3  1  0  0  0  0
  3  4  1  0  0  0  0
  4  5  1  0  0  0  0
  5  6  2  0  0  0  0
  5  7  1  0  0  0  0
  7  8  1  0  0  0  0
  9  8  1  0  0  0  0
  8 15  1  0  0  0  0
 10  9  2  0  0  0  0
 10 11  1  0  0  0  0
 12 10  1  0  0  0  0
 12 13  2  0  0  0  0
 14 12  1  0  0  0  0
 15 14  2  0  0  0  0
 14 16  1  0  0  0  0
M  END
> <Inchi_key>
ROSXARVHJNYYDO-UHFFFAOYSA-N

> <Source>
Mulliner

> <ID>
HT1767

> <H_MFHB>
0

> <CAS>


> <Cholestasis>


> <Name>
propyliodone

> <Class>
0

$$$$