
  -INDIGO-08031710012D

 46 51  0  0  0  0  0  0  0  0999 V2000
   -0.0528   -0.0407    0.0000 C   0  0  0  0  0  0  0  0  0  0  0  0
    1.4469   -0.0214    0.0000 O   0  0  0  0  0  0  0  0  0  0  0  0
    2.2136   -1.3108    0.0000 C   0  0  0  0  0  0  0  0  0  0  0  0
    1.4806   -2.6194    0.0000 C   0  0  0  0  0  0  0  0  0  0  0  0
    2.2472   -3.9086    0.0000 C   0  0  0  0  0  0  0  0  0  0  0  0
    3.7469   -3.8893    0.0000 C   0  0  0  0  0  0  0  0  0  0  0  0
    4.5136   -5.1785    0.0000 C   0  0  0  0  0  0  0  0  0  0  0  0
    6.0137   -5.1594    0.0000 N   0  0  0  0  0  0  0  0  0  0  0  0
    6.7800   -6.4484    0.0000 C   0  0  0  0  0  0  0  0  0  0  0  0
    8.2801   -6.4291    0.0000 C   0  0  0  0  0  0  0  0  0  0  0  0
    9.0131   -5.1207    0.0000 C   0  0  0  0  0  0  0  0  0  0  0  0
    8.2467   -3.8313    0.0000 C   0  0  0  0  0  0  0  0  0  0  0  0
    9.2358   -2.7039    0.0000 N   0  0  0  0  0  0  0  0  0  0  0  0
   10.6138   -3.2962    0.0000 C   0  0  0  0  0  0  0  0  0  0  0  0
   11.9763   -2.6687    0.0000 C   0  0  0  0  0  0  0  0  0  0  0  0
   13.2011   -3.5346    0.0000 C   0  0  0  0  0  0  0  0  0  0  0  0
   14.5632   -2.9069    0.0000 O   0  0  0  0  0  0  0  0  0  0  0  0
   15.7881   -3.7730    0.0000 C   0  0  0  0  0  0  0  0  0  0  0  0
   13.0635   -5.0283    0.0000 C   0  0  0  0  0  0  0  0  0  0  0  0
   11.7011   -5.6558    0.0000 C   0  0  0  0  0  0  0  0  0  0  0  0
   10.4762   -4.7901    0.0000 C   0  0  0  0  0  0  0  0  0  0  0  0
    6.7467   -3.8506    0.0000 C   0  0  0  0  0  0  0  0  0  0  0  0
    5.9800   -2.5614    0.0000 C   0  0  0  0  0  0  0  0  0  0  0  0
    4.4803   -2.5807    0.0000 C   0  0  0  0  0  0  0  0  0  0  0  0
    3.7136   -1.2915    0.0000 C   0  0  0  0  0  0  0  0  0  0  0  0
    4.4470    0.0173    0.0000 C   0  0  0  0  0  0  0  0  0  0  0  0
    3.6803    1.3064    0.0000 O   0  0  0  0  0  0  0  0  0  0  0  0
    5.9467    0.0364    0.0000 O   0  0  0  0  0  0  0  0  0  0  0  0
    6.6800    1.3450    0.0000 C   0  0  0  0  0  0  0  0  0  0  0  0
   -0.0195   -2.6387    0.0000 O   0  0  0  0  0  0  0  0  0  0  0  0
   -0.7529   -3.9472    0.0000 C   0  0  0  0  0  0  0  0  0  0  0  0
   -2.2525   -3.9666    0.0000 O   0  0  0  0  0  0  0  0  0  0  0  0
    0.0138   -5.2363    0.0000 C   0  0  0  0  0  0  0  0  0  0  0  0
   -0.7192   -6.5451    0.0000 C   0  0  0  0  0  0  0  0  0  0  0  0
   -2.2192   -6.5644    0.0000 C   0  0  0  0  0  0  0  0  0  0  0  0
   -2.9526   -7.8730    0.0000 C   0  0  0  0  0  0  0  0  0  0  0  0
   -4.4523   -7.8923    0.0000 C   0  0  0  0  0  0  0  0  0  0  0  0
   -5.1856   -9.2009    0.0000 O   0  0  0  0  0  0  0  0  0  0  0  0
   -4.4189  -10.4901    0.0000 C   0  0  0  0  0  0  0  0  0  0  0  0
   -5.2190   -6.6029    0.0000 C   0  0  0  0  0  0  0  0  0  0  0  0
   -6.7186   -6.6222    0.0000 O   0  0  0  0  0  0  0  0  0  0  0  0
   -7.4520   -7.9307    0.0000 C   0  0  0  0  0  0  0  0  0  0  0  0
   -4.4856   -5.2943    0.0000 C   0  0  0  0  0  0  0  0  0  0  0  0
   -5.2523   -4.0050    0.0000 O   0  0  0  0  0  0  0  0  0  0  0  0
   -6.7523   -4.0244    0.0000 C   0  0  0  0  0  0  0  0  0  0  0  0
   -2.9859   -5.2750    0.0000 C   0  0  0  0  0  0  0  0  0  0  0  0
  1  2  1  0  0  0  0
  2  3  1  0  0  0  0
  4  3  1  0  0  0  0
  3 25  1  0  0  0  0
  5  4  1  0  0  0  0
  4 30  1  0  0  0  0
  6  5  1  0  0  0  0
  7  6  1  0  0  0  0
  6 24  1  0  0  0  0
  8  7  1  0  0  0  0
  9  8  1  0  0  0  0
  8 22  1  0  0  0  0
 10  9  1  0  0  0  0
 11 10  1  0  0  0  0
 11 12  2  0  0  0  0
 21 11  1  0  0  0  0
 12 13  1  0  0  0  0
 22 12  1  0  0  0  0
 13 14  1  0  0  0  0
 15 14  1  0  0  0  0
 14 21  2  0  0  0  0
 16 15  2  0  0  0  0
 16 17  1  0  0  0  0
 19 16  1  0  0  0  0
 17 18  1  0  0  0  0
 20 19  2  0  0  0  0
 21 20  1  0  0  0  0
 23 22  1  0  0  0  0
 24 23  1  0  0  0  0
 25 24  1  0  0  0  0
 25 26  1  0  0  0  0
 26 27  2  0  0  0  0
 26 28  1  0  0  0  0
 28 29  1  0  0  0  0
 30 31  1  0  0  0  0
 31 32  2  0  0  0  0
 31 33  1  0  0  0  0
 33 34  2  0  0  0  0
 34 35  1  0  0  0  0
 36 35  2  0  0  0  0
 35 46  1  0  0  0  0
 37 36  1  0  0  0  0
 37 38  1  0  0  0  0
 40 37  2  0  0  0  0
 38 39  1  0  0  0  0
 40 41  1  0  0  0  0
 43 40  1  0  0  0  0
 41 42  1  0  0  0  0
 43 44  1  0  0  0  0
 46 43  2  0  0  0  0
 44 45  1  0  0  0  0
M  END
> <Inchi_key>
SZLZWPPUNLXJEA-YFHOEESVSA-N

> <Source>
Mulliner

> <ID>
HT1812

> <H_MFHB>
0

> <CAS>


> <Cholestasis>


> <Name>
rescinnamine

> <Class>
0

$$$$