
  -INDIGO-08031710012D

 10  9  0  0  0  0  0  0  0  0999 V2000
    8.1319   -2.1789    0.0000 C   0  0  0  0  0  0  0  0  0  0  0  0
    6.8329   -1.4289    0.0000 C   0  0  0  0  0  0  0  0  0  0  0  0
    6.8329    0.0711    0.0000 O   0  0  0  0  0  0  0  0  0  0  0  0
    5.5338   -2.1789    0.0000 O   0  0  0  0  0  0  0  0  0  0  0  0
    4.2349   -1.4289    0.0000 C   0  0  0  0  0  0  0  0  0  0  0  0
    2.9358   -2.1789    0.0000 C   0  0  0  0  0  0  0  0  0  0  0  0
    1.6367   -1.4289    0.0000 N   0  0  0  0  0  0  0  0  0  0  0  0
    0.8867   -2.7280    0.0000 C   0  0  0  0  0  0  0  0  0  0  0  0
    2.3867   -0.1299    0.0000 C   0  0  0  0  0  0  0  0  0  0  0  0
    0.3377   -0.6789    0.0000 C   0  0  0  0  0  0  0  0  0  0  0  0
  1  2  1  0  0  0  0
  2  3  2  0  0  0  0
  2  4  1  0  0  0  0
  4  5  1  0  0  0  0
  5  6  1  0  0  0  0
  6  7  1  0  0  0  0
  7  8  1  0  0  0  0
  7  9  1  0  0  0  0
  7 10  1  0  0  0  0
M  CHG  1   7   1
M  END
> <Inchi_key>
OIPILFWXSMYKGL-UHFFFAOYSA-N

> <Source>
Mulliner

> <ID>
HT0062

> <H_MFHB>
0

> <CAS>


> <Cholestasis>


> <Name>
acetylcholine

> <Class>
0

$$$$