
  -INDIGO-08031710012D

 23 23  0  0  0  0  0  0  0  0999 V2000
   -0.0978   -0.1694    0.0000 C   0  0  0  0  0  0  0  0  0  0  0  0
    0.6522   -1.4685    0.0000 C   0  0  0  0  0  0  0  0  0  0  0  0
    2.1522   -1.4685    0.0000 C   0  0  0  0  0  0  0  0  0  0  0  0
    2.9022   -2.7674    0.0000 N   0  0  0  0  0  0  0  0  0  0  0  0
    2.1522   -4.0667    0.0000 C   0  0  0  0  0  0  0  0  0  0  0  0
    0.6522   -4.0667    0.0000 C   0  0  0  0  0  0  0  0  0  0  0  0
   -0.0978   -5.3656    0.0000 C   0  0  0  0  0  0  0  0  0  0  0  0
    4.4021   -2.7674    0.0000 C   0  0  0  0  0  0  0  0  0  0  0  0
    5.1523   -1.4685    0.0000 C   0  0  0  0  0  0  0  0  0  0  0  0
    6.6523   -1.4685    0.0000 C   0  0  0  0  0  0  0  0  0  0  0  0
    7.4022   -2.7674    0.0000 C   0  0  0  0  0  0  0  0  0  0  0  0
    6.6523   -4.0667    0.0000 C   0  0  0  0  0  0  0  0  0  0  0  0
    5.1523   -4.0667    0.0000 C   0  0  0  0  0  0  0  0  0  0  0  0
    4.4021   -5.3656    0.0000 N   0  0  0  0  0  0  0  0  0  0  0  0
    5.1523   -6.6646    0.0000 O   0  0  0  0  0  0  0  0  0  0  0  0
    2.9022   -5.3656    0.0000 O   0  0  0  0  0  0  0  0  0  0  0  0
    8.9022   -2.7674    0.0000 C   0  0  0  0  0  0  0  0  0  0  0  0
   10.4022   -2.7674    0.0000 F   0  0  0  0  0  0  0  0  0  0  0  0
    8.9022   -1.2675    0.0000 F   0  0  0  0  0  0  0  0  0  0  0  0
    8.9022   -4.2675    0.0000 F   0  0  0  0  0  0  0  0  0  0  0  0
    4.4021   -0.1694    0.0000 N   0  0  0  0  0  0  0  0  0  0  0  0
    5.1523    1.1296    0.0000 O   0  0  0  0  0  0  0  0  0  0  0  0
    2.9022   -0.1694    0.0000 O   0  0  0  0  0  0  0  0  0  0  0  0
  1  2  1  0  0  0  0
  2  3  1  0  0  0  0
  3  4  1  0  0  0  0
  4  5  1  0  0  0  0
  4  8  1  0  0  0  0
  5  6  1  0  0  0  0
  6  7  1  0  0  0  0
  9  8  2  0  0  0  0
  8 13  1  0  0  0  0
 10  9  1  0  0  0  0
  9 21  1  0  0  0  0
 11 10  2  0  0  0  0
 12 11  1  0  0  0  0
 11 17  1  0  0  0  0
 13 12  2  0  0  0  0
 13 14  1  0  0  0  0
 14 15  2  0  0  0  0
 14 16  1  0  0  0  0
 17 18  1  0  0  0  0
 17 19  1  0  0  0  0
 17 20  1  0  0  0  0
 21 22  2  0  0  0  0
 21 23  1  0  0  0  0
M  CHG  4  14   1  16  -1  21   1  23  -1
M  END
> <Inchi_key>
ZSDSQXJSNMTJDA-UHFFFAOYSA-N

> <Source>
Mulliner

> <ID>
HT3535

> <H_MFHB>
0

> <CAS>
9/8/1582

> <Cholestasis>


> <Name>


> <Class>
0

$$$$