

  -INDIGO-08031710012D

 15 15  0  0  0  0  0  0  0  0999 V2000
    4.1123    6.2981    0.0000 C   0  0  0  0  0  0  0  0  0  0  0  0
    2.8135    5.5481    0.0000 O   0  0  0  0  0  0  0  0  0  0  0  0
    2.8135    4.0481    0.0000 C   0  0  0  0  0  0  0  0  0  0  0  0
    4.1123    3.2981    0.0000 C   0  0  0  0  0  0  0  0  0  0  0  0
    4.1123    1.7981    0.0000 C   0  0  0  0  0  0  0  0  0  0  0  0
    5.4115    1.0481    0.0000 C   0  0  0  0  0  0  0  0  0  0  0  0
    6.7105    1.7981    0.0000 C   0  0  0  0  0  0  0  0  0  0  0  0
    8.0095    1.0481    0.0000 N   0  0  0  0  0  0  0  0  0  0  0  0
    2.8135    1.0481    0.0000 C   0  0  0  0  0  0  0  0  0  0  0  0
    1.5145    1.7981    0.0000 C   0  0  0  0  0  0  0  0  0  0  0  0
    0.2153    1.0481    0.0000 O   0  0  0  0  0  0  0  0  0  0  0  0
    0.2153   -0.4519    0.0000 C   0  0  0  0  0  0  0  0  0  0  0  0
    1.5145    3.2981    0.0000 C   0  0  0  0  0  0  0  0  0  0  0  0
    0.2153    4.0481    0.0000 O   0  0  0  0  0  0  0  0  0  0  0  0
   -1.0837    3.2981    0.0000 C   0  0  0  0  0  0  0  0  0  0  0  0
  1  2  1  0  0  0  0
  2  3  1  0  0  0  0
  4  3  2  0  0  0  0
  3 13  1  0  0  0  0
  5  4  1  0  0  0  0
  5  6  1  0  0  0  0
  9  5  2  0  0  0  0
  6  7  1  0  0  0  0
  7  8  1  0  0  0  0
 10  9  1  0  0  0  0
 10 11  1  0  0  0  0
 13 10  2  0  0  0  0
 11 12  1  0  0  0  0
 13 14  1  0  0  0  0
 14 15  1  0  0  0  0
M  END
> <Inchi_key>
RHCSKNNOAZULRK-UHFFFAOYSA-N

> <Source>
Mulliner

> <ID>
HT1318

> <H_MFHB>
0

> <CAS>


> <Cholestasis>


> <Name>
mescalin

> <Class>
0


$$$$