
  -INDIGO-08031710012D

 18 19  0  0  0  0  0  0  0  0999 V2000
   11.8345   -0.0044    0.0000 C   0  0  0  0  0  0  0  0  0  0  0  0
   10.5356   -0.7544    0.0000 C   0  0  0  0  0  0  0  0  0  0  0  0
   10.5356   -2.2544    0.0000 C   0  0  0  0  0  0  0  0  0  0  0  0
    9.2363   -3.0044    0.0000 C   0  0  0  0  0  0  0  0  0  0  0  0
    7.9374   -2.2544    0.0000 N   0  0  0  0  0  0  0  0  0  0  0  0
    7.9374   -0.7544    0.0000 C   0  0  0  0  0  0  0  0  0  0  0  0
    6.6385   -0.0044    0.0000 N   0  0  0  0  0  0  0  0  0  0  0  0
    5.3392   -0.7544    0.0000 S   0  0  0  0  0  0  0  0  0  0  0  0
    4.5892    0.5447    0.0000 O   0  0  0  0  0  0  0  0  0  0  0  0
    6.0894   -2.0534    0.0000 O   0  0  0  0  0  0  0  0  0  0  0  0
    4.0403   -1.5044    0.0000 C   0  0  0  0  0  0  0  0  0  0  0  0
    4.0403   -3.0044    0.0000 C   0  0  0  0  0  0  0  0  0  0  0  0
    2.7412   -3.7544    0.0000 C   0  0  0  0  0  0  0  0  0  0  0  0
    1.4421   -3.0044    0.0000 C   0  0  0  0  0  0  0  0  0  0  0  0
    0.1432   -3.7544    0.0000 N   0  0  0  0  0  0  0  0  0  0  0  0
    1.4421   -1.5044    0.0000 C   0  0  0  0  0  0  0  0  0  0  0  0
    2.7412   -0.7544    0.0000 C   0  0  0  0  0  0  0  0  0  0  0  0
    9.2363   -0.0044    0.0000 N   0  0  0  0  0  0  0  0  0  0  0  0
  1  2  1  0  0  0  0
  3  2  2  0  0  0  0
  2 18  1  0  0  0  0
  4  3  1  0  0  0  0
  5  4  2  0  0  0  0
  6  5  1  0  0  0  0
  6  7  1  0  0  0  0
 18  6  2  0  0  0  0
  7  8  1  0  0  0  0
  8  9  2  0  0  0  0
  8 10  2  0  0  0  0
  8 11  1  0  0  0  0
 12 11  2  0  0  0  0
 11 17  1  0  0  0  0
 13 12  1  0  0  0  0
 14 13  2  0  0  0  0
 14 15  1  0  0  0  0
 16 14  1  0  0  0  0
 17 16  2  0  0  0  0
M  END
> <Inchi_key>
QPPBRPIAZZHUNT-UHFFFAOYSA-N

> <Source>
Mulliner

> <ID>
HT1941

> <H_MFHB>
0

> <CAS>


> <Cholestasis>


> <Name>
sulfamerazine

> <Class>
0

$$$$