

  -INDIGO-08031710012D

 34 35  0  0  0  0  0  0  0  0999 V2000
   27.3671    3.1380    0.0000 C   0  0  0  0  0  0  0  0  0  0  0  0
   26.0683    3.8880    0.0000 C   0  0  0  0  0  0  0  0  0  0  0  0
   26.0683    5.3880    0.0000 C   0  0  0  0  0  0  0  0  0  0  0  0
   24.7691    3.1380    0.0000 C   0  0  0  0  0  0  0  0  0  0  0  0
   23.4699    3.8880    0.0000 C   0  0  0  0  0  0  0  0  0  0  0  0
   22.1711    3.1380    0.0000 C   0  0  0  0  0  0  0  0  0  0  0  0
   20.8719    3.8880    0.0000 C   0  0  0  0  0  0  0  0  0  0  0  0
   20.8719    5.3880    0.0000 C   0  0  0  0  0  0  0  0  0  0  0  0
   19.5731    3.1380    0.0000 C   0  0  0  0  0  0  0  0  0  0  0  0
   18.2739    3.8880    0.0000 C   0  0  0  0  0  0  0  0  0  0  0  0
   16.9747    3.1380    0.0000 C   0  0  0  0  0  0  0  0  0  0  0  0
   15.6759    3.8880    0.0000 C   0  0  0  0  0  0  0  0  0  0  0  0
   15.6759    5.3880    0.0000 C   0  0  0  0  0  0  0  0  0  0  0  0
   14.3767    3.1380    0.0000 C   0  0  0  0  0  0  0  0  0  0  0  0
   13.0778    3.8880    0.0000 C   0  0  0  0  0  0  0  0  0  0  0  0
   11.7786    3.1380    0.0000 C   0  0  0  0  0  0  0  0  0  0  0  0
   10.4795    3.8880    0.0000 C   0  0  0  0  0  0  0  0  0  0  0  0
   10.4795    2.3880    0.0000 C   0  0  0  0  0  0  0  0  0  0  0  0
   11.2297    5.1871    0.0000 C   0  0  0  0  0  0  0  0  0  0  0  0
   10.4795    6.4861    0.0000 C   0  0  0  0  0  0  0  0  0  0  0  0
    8.9797    6.4861    0.0000 C   0  0  0  0  0  0  0  0  0  0  0  0
    8.2295    7.7852    0.0000 C   0  0  0  0  0  0  0  0  0  0  0  0
    8.9797    9.0842    0.0000 C   0  0  0  0  0  0  0  0  0  0  0  0
    6.7298    7.7852    0.0000 C   0  0  0  0  0  0  0  0  0  0  0  0
    5.9796    9.0842    0.0000 O   0  0  0  0  0  0  0  0  0  0  0  0
    4.4795    9.0842    0.0000 C   0  0  0  0  0  0  0  0  0  0  0  0
    3.7296    7.7852    0.0000 O   0  0  0  0  0  0  0  0  0  0  0  0
    3.7296   10.3832    0.0000 C   0  0  0  0  0  0  0  0  0  0  0  0
    5.9796    6.4861    0.0000 C   0  0  0  0  0  0  0  0  0  0  0  0
    4.4795    6.4861    0.0000 C   0  0  0  0  0  0  0  0  0  0  0  0
    6.7298    5.1871    0.0000 C   0  0  0  0  0  0  0  0  0  0  0  0
    5.9796    3.8880    0.0000 C   0  0  0  0  0  0  0  0  0  0  0  0
    8.2295    5.1871    0.0000 C   0  0  0  0  0  0  0  0  0  0  0  0
    8.9797    3.8880    0.0000 O   0  0  0  0  0  0  0  0  0  0  0  0
  1  2  1  0  0  0  0
  2  3  1  0  0  0  0
  2  4  1  0  0  0  0
  4  5  1  0  0  0  0
  5  6  1  0  0  0  0
  6  7  1  0  0  0  0
  7  8  1  0  0  0  0
  7  9  1  0  0  0  0
  9 10  1  0  0  0  0
 10 11  1  0  0  0  0
 11 12  1  0  0  0  0
 12 13  1  0  0  0  0
 12 14  1  0  0  0  0
 14 15  1  0  0  0  0
 15 16  1  0  0  0  0
 16 17  1  0  0  0  0
 17 18  1  0  0  0  0
 19 17  1  0  0  0  0
 17 34  1  0  0  0  0
 20 19  1  0  0  0  0
 21 20  1  0  0  0  0
 22 21  1  0  0  0  0
 21 33  2  0  0  0  0
 22 23  1  0  0  0  0
 24 22  2  0  0  0  0
 24 25  1  0  0  0  0
 29 24  1  0  0  0  0
 25 26  1  0  0  0  0
 26 27  2  0  0  0  0
 26 28  1  0  0  0  0
 29 30  1  0  0  0  0
 31 29  2  0  0  0  0
 31 32  1  0  0  0  0
 33 31  1  0  0  0  0
 34 33  1  0  0  0  0
M  END
> <Inchi_key>
ZAKOWWREFLAJOT-UHFFFAOYSA-N

> <Source>
Mulliner

> <ID>
HT2076

> <H_MFHB>
0

> <CAS>
7695-91-2

> <Cholestasis>


> <Name>
tocopherol

> <Class>
0


$$$$