

  -INDIGO-08031709442D

 23 25  0  0  0  0  0  0  0  0999 V2000
    0.2722    0.4734    0.0000 S   0  0  0  0  0  0  0  0  0  0  0  0
    0.2664    1.9734    0.0000 O   0  0  0  0  0  0  0  0  0  0  0  0
   -1.0298    1.2185    0.0000 O   0  0  0  0  0  0  0  0  0  0  0  0
    1.7720    0.4791    0.0000 N   0  0  0  0  0  0  0  0  0  0  0  0
    2.5172    1.7809    0.0000 C   0  0  0  0  0  0  0  0  0  0  0  0
    2.5269   -0.8171    0.0000 C   0  0  0  0  0  0  0  0  0  0  0  0
    4.0270   -0.8115    0.0000 C   0  0  0  0  0  0  0  0  0  0  0  0
    4.7721    0.4904    0.0000 O   0  0  0  0  0  0  0  0  0  0  0  0
    4.7819   -2.1076    0.0000 N   0  0  0  0  0  0  0  0  0  0  0  0
    6.2819   -2.1020    0.0000 C   0  0  0  0  0  0  0  0  0  0  0  0
    7.1590   -0.8851    0.0000 N   0  0  0  0  0  0  0  0  0  0  0  0
    8.5873   -1.3432    0.0000 O   0  0  0  0  0  0  0  0  0  0  0  0
    8.5931   -2.8432    0.0000 C   0  0  0  0  0  0  0  0  0  0  0  0
    7.1681   -3.3121    0.0000 C   0  0  0  0  0  0  0  0  0  0  0  0
    9.8098   -3.7203    0.0000 C   0  0  0  0  0  0  0  0  0  0  0  0
    1.7820   -2.1190    0.0000 C   0  0  0  0  0  0  0  0  0  0  0  0
    2.5369   -3.4152    0.0000 O   0  0  0  0  0  0  0  0  0  0  0  0
    0.2819   -2.1247    0.0000 C   0  0  0  0  0  0  0  0  0  0  0  0
   -0.4730   -0.8285    0.0000 C   0  0  0  0  0  0  0  0  0  0  0  0
   -1.9730   -0.8342    0.0000 C   0  0  0  0  0  0  0  0  0  0  0  0
   -2.7180   -2.1360    0.0000 C   0  0  0  0  0  0  0  0  0  0  0  0
   -1.9631   -3.4322    0.0000 C   0  0  0  0  0  0  0  0  0  0  0  0
   -0.4631   -3.4265    0.0000 C   0  0  0  0  0  0  0  0  0  0  0  0
  1  2  2  0  0  0  0
  1  3  2  0  0  0  0
  4  1  1  0  0  0  0
  1 19  1  0  0  0  0
  4  5  1  0  0  0  0
  6  4  1  0  0  0  0
  6  7  1  0  0  0  0
 16  6  2  0  0  0  0
  7  8  2  0  0  0  0
  7  9  1  0  0  0  0
  9 10  1  0  0  0  0
 11 10  2  0  0  0  0
 10 14  1  0  0  0  0
 12 11  1  0  0  0  0
 13 12  1  0  0  0  0
 14 13  2  0  0  0  0
 13 15  1  0  0  0  0
 16 17  1  0  0  0  0
 18 16  1  0  0  0  0
 18 19  2  0  0  0  0
 23 18  1  0  0  0  0
 19 20  1  0  0  0  0
 20 21  2  0  0  0  0
 21 22  1  0  0  0  0
 22 23  2  0  0  0  0
M  END
> <Inchi_key>
YYUAYBYLJSNDCX-UHFFFAOYSA-N

> <Source>
Kotsampasakou

> <ID>
EK0285

> <H_MFHB>


> <CAS>


> <Cholestasis>
0

> <Name>
isoxicam

> <Class>
0


$$$$