
  -INDIGO-08031710012D

 36 39  0  0  0  0  0  0  0  0999 V2000
   19.5971   -5.3874    0.0000 N   0  0  0  0  0  0  0  0  0  0  0  0
   18.2979   -6.1374    0.0000 C   0  0  0  0  0  0  0  0  0  0  0  0
   18.2979   -7.6374    0.0000 O   0  0  0  0  0  0  0  0  0  0  0  0
   16.9991   -5.3874    0.0000 C   0  0  0  0  0  0  0  0  0  0  0  0
   15.6999   -6.1374    0.0000 C   0  0  0  0  0  0  0  0  0  0  0  0
   14.4008   -5.3874    0.0000 C   0  0  0  0  0  0  0  0  0  0  0  0
   14.4008   -3.8874    0.0000 N   0  0  0  0  0  0  0  0  0  0  0  0
   13.1019   -3.1374    0.0000 C   0  0  0  0  0  0  0  0  0  0  0  0
   11.8028   -3.8874    0.0000 C   0  0  0  0  0  0  0  0  0  0  0  0
   10.5039   -3.1374    0.0000 C   0  0  0  0  0  0  0  0  0  0  0  0
    9.2048   -3.8874    0.0000 N   0  0  0  0  0  0  0  0  0  0  0  0
    9.2048   -5.3874    0.0000 C   0  0  0  0  0  0  0  0  0  0  0  0
   10.5039   -6.1374    0.0000 S   0  0  0  0  0  0  0  0  0  0  0  0
   11.8028   -5.3874    0.0000 C   0  0  0  0  0  0  0  0  0  0  0  0
    7.7049   -5.3874    0.0000 C   0  0  0  0  0  0  0  0  0  0  0  0
    6.6440   -6.4479    0.0000 N   0  0  0  0  0  0  0  0  0  0  0  0
    5.1952   -6.0598    0.0000 C   0  0  0  0  0  0  0  0  0  0  0  0
    4.8071   -4.6109    0.0000 O   0  0  0  0  0  0  0  0  0  0  0  0
    4.1345   -7.1205    0.0000 C   0  0  0  0  0  0  0  0  0  0  0  0
    2.6858   -6.7322    0.0000 C   0  0  0  0  0  0  0  0  0  0  0  0
    2.2973   -5.2833    0.0000 C   0  0  0  0  0  0  0  0  0  0  0  0
    0.8486   -4.8951    0.0000 C   0  0  0  0  0  0  0  0  0  0  0  0
   -0.2121   -5.9558    0.0000 C   0  0  0  0  0  0  0  0  0  0  0  0
    0.1760   -7.4047    0.0000 C   0  0  0  0  0  0  0  0  0  0  0  0
    1.6251   -7.7929    0.0000 C   0  0  0  0  0  0  0  0  0  0  0  0
    4.5229   -8.5693    0.0000 S   0  0  0  0  0  0  0  0  0  0  0  0
    3.0739   -8.9576    0.0000 O   0  0  0  0  0  0  0  0  0  0  0  0
    5.9717   -8.1810    0.0000 O   0  0  0  0  0  0  0  0  0  0  0  0
    4.9111  -10.0182    0.0000 O   0  0  0  0  0  0  0  0  0  0  0  0
    7.7049   -3.8874    0.0000 C   0  0  0  0  0  0  0  0  0  0  0  0
    6.6440   -2.8267    0.0000 O   0  0  0  0  0  0  0  0  0  0  0  0
   10.5039   -1.6374    0.0000 C   0  0  0  0  0  0  0  0  0  0  0  0
   11.8028   -0.8874    0.0000 O   0  0  0  0  0  0  0  0  0  0  0  0
    9.2048   -0.8874    0.0000 O   0  0  0  0  0  0  0  0  0  0  0  0
   15.6999   -3.1374    0.0000 C   0  0  0  0  0  0  0  0  0  0  0  0
   16.9991   -3.8874    0.0000 C   0  0  0  0  0  0  0  0  0  0  0  0
  1  2  1  0  0  0  0
  2  3  2  0  0  0  0
  2  4  1  0  0  0  0
  5  4  2  0  0  0  0
  4 36  1  0  0  0  0
  6  5  1  0  0  0  0
  7  6  2  0  0  0  0
  7  8  1  0  0  0  0
 35  7  1  0  0  0  0
  8  9  1  0  0  0  0
 10  9  2  0  0  0  0
  9 14  1  0  0  0  0
 11 10  1  0  0  0  0
 10 32  1  0  0  0  0
 11 12  1  0  0  0  0
 30 11  1  0  0  0  0
 13 12  1  0  0  0  0
 12 15  1  0  0  0  0
 14 13  1  0  0  0  0
 15 16  1  0  0  0  0
 15 30  1  0  0  0  0
 16 17  1  0  0  0  0
 17 18  2  0  0  0  0
 17 19  1  0  0  0  0
 19 20  1  0  0  0  0
 19 26  1  0  0  0  0
 21 20  2  0  0  0  0
 20 25  1  0  0  0  0
 22 21  1  0  0  0  0
 23 22  2  0  0  0  0
 24 23  1  0  0  0  0
 25 24  2  0  0  0  0
 26 27  2  0  0  0  0
 26 28  2  0  0  0  0
 26 29  1  0  0  0  0
 30 31  2  0  0  0  0
 32 33  2  0  0  0  0
 32 34  1  0  0  0  0
 36 35  2  0  0  0  0
M  CHG  2   7   1  34  -1
M  END
> <Inchi_key>
SYLKGLMBLAAGSC-UHFFFAOYSA-N

> <Source>
Mulliner

> <ID>
HT0421

> <H_MFHB>
0

> <CAS>
62587-73-9;52152-93-9

> <Cholestasis>


> <Name>
cefsulodin

> <Class>
0

$$$$