
  -INDIGO-08031710012D

 20 22  0  0  0  0  0  0  0  0999 V2000
   -1.3306   -5.0324    0.0000 N   0  0  0  0  0  0  0  0  0  0  0  0
   -0.0265   -5.7737    0.0000 C   0  0  0  0  0  0  0  0  0  0  0  0
   -0.0166   -7.2737    0.0000 O   0  0  0  0  0  0  0  0  0  0  0  0
    1.2676   -5.0152    0.0000 C   0  0  0  0  0  0  0  0  0  0  0  0
    1.2575   -3.5151    0.0000 C   0  0  0  0  0  0  0  0  0  0  0  0
    2.5515   -2.7566    0.0000 C   0  0  0  0  0  0  0  0  0  0  0  0
    1.1879   -2.1317    0.0000 N   0  0  0  0  0  0  0  0  0  0  0  0
    1.3608   -0.6417    0.0000 C   0  0  0  0  0  0  0  0  0  0  0  0
    0.2572    0.3740    0.0000 O   0  0  0  0  0  0  0  0  0  0  0  0
    2.8314   -0.3457    0.0000 N   0  0  0  0  0  0  0  0  0  0  0  0
    3.5673   -1.6528    0.0000 C   0  0  0  0  0  0  0  0  0  0  0  0
    5.0573   -1.8257    0.0000 O   0  0  0  0  0  0  0  0  0  0  0  0
    3.8555   -3.4979    0.0000 C   0  0  0  0  0  0  0  0  0  0  0  0
    5.1496   -2.7393    0.0000 C   0  0  0  0  0  0  0  0  0  0  0  0
    6.4536   -3.4807    0.0000 C   0  0  0  0  0  0  0  0  0  0  0  0
    7.7476   -2.7221    0.0000 F   0  0  0  0  0  0  0  0  0  0  0  0
    6.4635   -4.9807    0.0000 C   0  0  0  0  0  0  0  0  0  0  0  0
    5.1695   -5.7393    0.0000 C   0  0  0  0  0  0  0  0  0  0  0  0
    3.8655   -4.9979    0.0000 C   0  0  0  0  0  0  0  0  0  0  0  0
    2.5715   -5.7565    0.0000 O   0  0  0  0  0  0  0  0  0  0  0  0
  1  2  1  0  0  0  0
  2  3  2  0  0  0  0
  2  4  1  0  0  0  0
  5  4  1  0  0  0  0
  4 20  1  0  0  0  0
  6  5  1  0  0  0  0
  7  6  1  0  0  0  0
  6 11  1  0  0  0  0
 13  6  1  0  0  0  0
  8  7  1  0  0  0  0
  8  9  2  0  0  0  0
 10  8  1  0  0  0  0
 11 10  1  0  0  0  0
 11 12  2  0  0  0  0
 14 13  1  0  0  0  0
 13 19  2  0  0  0  0
 15 14  2  0  0  0  0
 15 16  1  0  0  0  0
 17 15  1  0  0  0  0
 18 17  2  0  0  0  0
 19 18  1  0  0  0  0
 20 19  1  0  0  0  0
M  END
> <Inchi_key>
WAAPEIZFCHNLKK-UHFFFAOYSA-N

> <Source>
Mulliner

> <ID>
HT0873

> <H_MFHB>
0

> <CAS>
136087-85-9

> <Cholestasis>


> <Name>
fidarestat

> <Class>
0

$$$$