
  -INDIGO-08031710012D

 28 31  0  0  0  0  0  0  0  0999 V2000
   -4.3189    2.4935    0.0000 O   0  0  0  0  0  0  0  0  0  0  0  0
   -5.0688    3.7926    0.0000 C   0  0  0  0  0  0  0  0  0  0  0  0
   -6.5690    3.7926    0.0000 C   0  0  0  0  0  0  0  0  0  0  0  0
   -7.3189    5.0916    0.0000 C   0  0  0  0  0  0  0  0  0  0  0  0
   -8.2005    3.8781    0.0000 C   0  0  0  0  0  0  0  0  0  0  0  0
   -9.6272    4.3416    0.0000 C   0  0  0  0  0  0  0  0  0  0  0  0
   -9.6272    5.8416    0.0000 C   0  0  0  0  0  0  0  0  0  0  0  0
   -8.2005    6.3051    0.0000 C   0  0  0  0  0  0  0  0  0  0  0  0
   -6.5690    6.3907    0.0000 C   0  0  0  0  0  0  0  0  0  0  0  0
   -5.0688    6.3907    0.0000 C   0  0  0  0  0  0  0  0  0  0  0  0
   -4.3189    7.6897    0.0000 O   0  0  0  0  0  0  0  0  0  0  0  0
   -4.3189    5.0916    0.0000 N   0  0  0  0  0  0  0  0  0  0  0  0
   -2.8188    5.0916    0.0000 C   0  0  0  0  0  0  0  0  0  0  0  0
   -2.0689    3.7926    0.0000 C   0  0  0  0  0  0  0  0  0  0  0  0
   -0.5690    3.7926    0.0000 C   0  0  0  0  0  0  0  0  0  0  0  0
    0.1812    2.4935    0.0000 C   0  0  0  0  0  0  0  0  0  0  0  0
    1.6810    2.4935    0.0000 N   0  0  0  0  0  0  0  0  0  0  0  0
    2.4312    1.1945    0.0000 C   0  0  0  0  0  0  0  0  0  0  0  0
    3.9311    1.1945    0.0000 C   0  0  0  0  0  0  0  0  0  0  0  0
    4.6810    2.4935    0.0000 N   0  0  0  0  0  0  0  0  0  0  0  0
    3.9311    3.7926    0.0000 C   0  0  0  0  0  0  0  0  0  0  0  0
    2.4312    3.7926    0.0000 C   0  0  0  0  0  0  0  0  0  0  0  0
    6.1811    2.4935    0.0000 C   0  0  0  0  0  0  0  0  0  0  0  0
    6.9310    1.1945    0.0000 N   0  0  0  0  0  0  0  0  0  0  0  0
    8.4312    1.1945    0.0000 C   0  0  0  0  0  0  0  0  0  0  0  0
    9.1811    2.4935    0.0000 C   0  0  0  0  0  0  0  0  0  0  0  0
    8.4312    3.7926    0.0000 C   0  0  0  0  0  0  0  0  0  0  0  0
    6.9310    3.7926    0.0000 N   0  0  0  0  0  0  0  0  0  0  0  0
  1  2  2  0  0  0  0
  3  2  1  0  0  0  0
  2 12  1  0  0  0  0
  4  3  1  0  0  0  0
  5  4  1  0  0  0  0
  4  8  1  0  0  0  0
  9  4  1  0  0  0  0
  6  5  1  0  0  0  0
  7  6  1  0  0  0  0
  8  7  1  0  0  0  0
 10  9  1  0  0  0  0
 10 11  2  0  0  0  0
 12 10  1  0  0  0  0
 12 13  1  0  0  0  0
 13 14  1  0  0  0  0
 14 15  1  0  0  0  0
 15 16  1  0  0  0  0
 16 17  1  0  0  0  0
 18 17  1  0  0  0  0
 17 22  1  0  0  0  0
 19 18  1  0  0  0  0
 20 19  1  0  0  0  0
 21 20  1  0  0  0  0
 20 23  1  0  0  0  0
 22 21  1  0  0  0  0
 24 23  2  0  0  0  0
 23 28  1  0  0  0  0
 25 24  1  0  0  0  0
 26 25  2  0  0  0  0
 27 26  1  0  0  0  0
 28 27  2  0  0  0  0
M  END
> <Inchi_key>
QWCRAEMEVRGPNT-UHFFFAOYSA-N

> <Source>
Mulliner

> <ID>
HT0331

> <H_MFHB>
0

> <CAS>


> <Cholestasis>


> <Name>
buspirone hydrochloride;buspirone

> <Class>
0

$$$$