

  -INDIGO-08031710012D

 31 35  0  0  0  0  0  0  0  0999 V2000
   17.0130    0.8299    0.0000 C   0  0  0  0  0  0  0  0  0  0  0  0
   15.5200    0.6839    0.0000 C   0  0  0  0  0  0  0  0  0  0  0  0
   14.6473    1.9038    0.0000 C   0  0  0  0  0  0  0  0  0  0  0  0
   13.1544    1.7578    0.0000 C   0  0  0  0  0  0  0  0  0  0  0  0
   12.3950    0.4642    0.0000 O   0  0  0  0  0  0  0  0  0  0  0  0
   10.9301    0.7867    0.0000 C   0  0  0  0  0  0  0  0  0  0  0  0
    9.5553    0.1865    0.0000 C   0  0  0  0  0  0  0  0  0  0  0  0
    8.5598    1.3085    0.0000 C   0  0  0  0  0  0  0  0  0  0  0  0
    7.0597    1.3193    0.0000 C   0  0  0  0  0  0  0  0  0  0  0  0
    6.3003    0.0257    0.0000 C   0  0  0  0  0  0  0  0  0  0  0  0
    4.8005    0.0366    0.0000 C   0  0  0  0  0  0  0  0  0  0  0  0
    4.0597    1.3410    0.0000 C   0  0  0  0  0  0  0  0  0  0  0  0
    2.5599    1.3519    0.0000 C   0  0  0  0  0  0  0  0  0  0  0  0
    1.8194    2.6563    0.0000 C   0  0  0  0  0  0  0  0  0  0  0  0
    0.3193    2.6672    0.0000 O   0  0  0  0  0  0  0  0  0  0  0  0
    2.5788    3.9499    0.0000 C   0  0  0  0  0  0  0  0  0  0  0  0
    4.0786    3.9390    0.0000 C   0  0  0  0  0  0  0  0  0  0  0  0
    4.8191    2.6346    0.0000 C   0  0  0  0  0  0  0  0  0  0  0  0
    5.5787    3.9282    0.0000 C   0  0  0  0  0  0  0  0  0  0  0  0
    6.3192    2.6237    0.0000 C   0  0  0  0  0  0  0  0  0  0  0  0
    7.0785    3.9173    0.0000 C   0  0  0  0  0  0  0  0  0  0  0  0
    6.3380    5.2218    0.0000 O   0  0  0  0  0  0  0  0  0  0  0  0
    8.5784    3.9065    0.0000 C   0  0  0  0  0  0  0  0  0  0  0  0
    9.3191    2.6020    0.0000 C   0  0  0  0  0  0  0  0  0  0  0  0
    9.7178    4.0481    0.0000 C   0  0  0  0  0  0  0  0  0  0  0  0
   10.7841    2.2796    0.0000 C   0  0  0  0  0  0  0  0  0  0  0  0
   12.1586    2.8797    0.0000 O   0  0  0  0  0  0  0  0  0  0  0  0
   11.1828    3.7256    0.0000 C   0  0  0  0  0  0  0  0  0  0  0  0
   12.6345    4.1033    0.0000 O   0  0  0  0  0  0  0  0  0  0  0  0
   10.1297    4.7939    0.0000 C   0  0  0  0  0  0  0  0  0  0  0  0
   10.5286    6.2400    0.0000 O   0  0  0  0  0  0  0  0  0  0  0  0
  1  2  1  0  0  0  0
  2  3  1  0  0  0  0
  3  4  1  0  0  0  0
  5  4  1  0  0  0  0
  4 27  1  0  0  0  0
  6  5  1  0  0  0  0
  7  6  1  0  0  0  0
  6 26  1  0  0  0  0
  8  7  1  0  0  0  0
  9  8  1  0  0  0  0
  8 24  1  0  0  0  0
 10  9  1  0  0  0  0
  9 20  1  0  0  0  0
 11 10  1  0  0  0  0
 12 11  1  0  0  0  0
 13 12  2  0  0  0  0
 12 18  1  0  0  0  0
 14 13  1  0  0  0  0
 14 15  2  0  0  0  0
 16 14  1  0  0  0  0
 17 16  2  0  0  0  0
 18 17  1  0  0  0  0
 18 19  1  0  0  0  0
 20 18  1  0  0  0  0
 21 20  1  0  0  0  0
 21 22  1  0  0  0  0
 23 21  1  0  0  0  0
 24 23  1  0  0  0  0
 24 25  1  0  0  0  0
 26 24  1  0  0  0  0
 27 26  1  0  0  0  0
 26 28  1  0  0  0  0
 28 29  2  0  0  0  0
 28 30  1  0  0  0  0
 30 31  1  0  0  0  0
M  END
> <Inchi_key>
VOVIALXJUBGFJZ-UHFFFAOYSA-N

> <Source>
Mulliner , Kotsampasakou

> <ID>
EK0073;HT0323

> <H_MFHB>
0

> <CAS>
51333-22-3;0

> <Cholestasis>
0

> <Name>
budesonide

> <Class>
0


$$$$