

  -INDIGO-08031710012D

 42 47  0  0  0  0  0  0  0  0999 V2000
   -1.1697   -0.5795    0.0000 O   0  0  0  0  0  0  0  0  0  0  0  0
   -1.0398    0.9149    0.0000 C   0  0  0  0  0  0  0  0  0  0  0  0
   -2.1727    1.8981    0.0000 N   0  0  0  0  0  0  0  0  0  0  0  0
    0.2452    1.6883    0.0000 O   0  0  0  0  0  0  0  0  0  0  0  0
   -0.0932    3.1496    0.0000 N   0  0  0  0  0  0  0  0  0  0  0  0
   -1.5875    3.2794    0.0000 C   0  0  0  0  0  0  0  0  0  0  0  0
   -2.3609    4.5647    0.0000 C   0  0  0  0  0  0  0  0  0  0  0  0
   -1.6345    5.8770    0.0000 C   0  0  0  0  0  0  0  0  0  0  0  0
   -3.8607    4.5375    0.0000 C   0  0  0  0  0  0  0  0  0  0  0  0
   -0.1347    5.9042    0.0000 C   0  0  0  0  0  0  0  0  0  0  0  0
   -2.4078    7.1622    0.0000 C   0  0  0  0  0  0  0  0  0  0  0  0
   -4.6340    5.8227    0.0000 C   0  0  0  0  0  0  0  0  0  0  0  0
    0.5915    7.2167    0.0000 C   0  0  0  0  0  0  0  0  0  0  0  0
    0.6387    4.6189    0.0000 C   0  0  0  0  0  0  0  0  0  0  0  0
   -3.9076    7.1351    0.0000 C   0  0  0  0  0  0  0  0  0  0  0  0
    2.0915    7.2436    0.0000 C   0  0  0  0  0  0  0  0  0  0  0  0
    2.1384    4.6461    0.0000 C   0  0  0  0  0  0  0  0  0  0  0  0
    2.8649    5.9584    0.0000 C   0  0  0  0  0  0  0  0  0  0  0  0
    4.3646    5.9856    0.0000 C   0  0  0  0  0  0  0  0  0  0  0  0
    5.0908    7.2981    0.0000 N   0  0  0  0  0  0  0  0  0  0  0  0
    4.4560    8.6571    0.0000 C   0  0  0  0  0  0  0  0  0  0  0  0
    6.5797    7.4818    0.0000 C   0  0  0  0  0  0  0  0  0  0  0  0
    2.9836    8.9425    0.0000 O   0  0  0  0  0  0  0  0  0  0  0  0
    5.5526    9.6808    0.0000 N   0  0  0  0  0  0  0  0  0  0  0  0
    6.8650    8.9544    0.0000 C   0  0  0  0  0  0  0  0  0  0  0  0
    7.7123    6.4985    0.0000 C   0  0  0  0  0  0  0  0  0  0  0  0
    2.4942   10.3602    0.0000 C   0  0  0  0  0  0  0  0  0  0  0  0
    8.2829    9.4437    0.0000 C   0  0  0  0  0  0  0  0  0  0  0  0
    9.1302    6.9877    0.0000 C   0  0  0  0  0  0  0  0  0  0  0  0
    7.4271    5.0258    0.0000 C   0  0  0  0  0  0  0  0  0  0  0  0
    1.0215   10.6456    0.0000 C   0  0  0  0  0  0  0  0  0  0  0  0
    9.4155    8.4604    0.0000 C   0  0  0  0  0  0  0  0  0  0  0  0
    6.0092    4.5367    0.0000 O   0  0  0  0  0  0  0  0  0  0  0  0
    8.5597    4.0425    0.0000 O   0  0  0  0  0  0  0  0  0  0  0  0
    8.2744    2.5699    0.0000 C   0  0  0  0  0  0  0  0  0  0  0  0
    9.4071    1.5865    0.0000 C   0  0  0  0  0  0  0  0  0  0  0  0
    9.2775    0.0921    0.0000 C   0  0  0  0  0  0  0  0  0  0  0  0
   10.8686    1.9249    0.0000 O   0  0  0  0  0  0  0  0  0  0  0  0
    7.9922   -0.6813    0.0000 C   0  0  0  0  0  0  0  0  0  0  0  0
   10.6587   -0.4931    0.0000 O   0  0  0  0  0  0  0  0  0  0  0  0
   11.6420    0.6395    0.0000 C   0  0  0  0  0  0  0  0  0  0  0  0
   13.1363    0.5099    0.0000 O   0  0  0  0  0  0  0  0  0  0  0  0
  1  2  2  0  0  0  0
  3  2  1  0  0  0  0
  2  4  1  0  0  0  0
  4  5  1  0  0  0  0
  5  6  2  0  0  0  0
  6  7  1  0  0  0  0
  6  3  1  0  0  0  0
  8  7  1  0  0  0  0
  7  9  2  0  0  0  0
  8 10  1  0  0  0  0
 11  8  2  0  0  0  0
  9 12  1  0  0  0  0
 13 10  2  0  0  0  0
 10 14  1  0  0  0  0
 15 11  1  0  0  0  0
 12 15  1  0  0  0  0
 16 13  1  0  0  0  0
 14 17  2  0  0  0  0
 18 16  2  0  0  0  0
 17 18  1  0  0  0  0
 18 19  1  0  0  0  0
 19 20  1  0  0  0  0
 21 20  1  0  0  0  0
 20 22  1  0  0  0  0
 21 23  1  0  0  0  0
 24 21  2  0  0  0  0
 25 22  2  0  0  0  0
 22 26  1  0  0  0  0
 23 27  1  0  0  0  0
 25 24  1  0  0  0  0
 28 25  1  0  0  0  0
 26 29  2  0  0  0  0
 26 30  1  0  0  0  0
 27 31  1  0  0  0  0
 32 28  2  0  0  0  0
 29 32  1  0  0  0  0
 30 33  2  0  0  0  0
 30 34  1  0  0  0  0
 34 35  1  0  0  0  0
 35 36  1  0  0  0  0
 37 36  2  0  0  0  0
 36 38  1  0  0  0  0
 37 39  1  0  0  0  0
 40 37  1  0  0  0  0
 38 41  1  0  0  0  0
 41 40  1  0  0  0  0
 41 42  2  0  0  0  0
M  END
> <Inchi_key>
CLBUSFPHXLIQNZ-UHFFFAOYSA-N

> <Source>
Mulliner

> <ID>
HT0217

> <H_MFHB>
0

> <CAS>


> <Cholestasis>


> <Name>
azilsartan medoxomil

> <Class>
0


$$$$