
  -INDIGO-08031710012D

  9  9  0  0  0  0  0  0  0  0999 V2000
    5.5981   -1.5000    0.0000 N   0  0  0  0  0  0  0  0  0  0  0  0
    4.2990   -0.7500    0.0000 C   0  0  0  0  0  0  0  0  0  0  0  0
    4.2990    0.7500    0.0000 C   0  0  0  0  0  0  0  0  0  0  0  0
    3.0000    1.5000    0.0000 C   0  0  0  0  0  0  0  0  0  0  0  0
    3.0000    3.0000    0.0000 Cl  0  0  0  0  0  0  0  0  0  0  0  0
    1.7010    0.7500    0.0000 C   0  0  0  0  0  0  0  0  0  0  0  0
    1.7010   -0.7500    0.0000 C   0  0  0  0  0  0  0  0  0  0  0  0
    0.4019   -1.5000    0.0000 Cl  0  0  0  0  0  0  0  0  0  0  0  0
    3.0000   -1.5000    0.0000 C   0  0  0  0  0  0  0  0  0  0  0  0
  1  2  1  0  0  0  0
  3  2  2  0  0  0  0
  2  9  1  0  0  0  0
  4  3  1  0  0  0  0
  4  5  1  0  0  0  0
  6  4  2  0  0  0  0
  7  6  1  0  0  0  0
  7  8  1  0  0  0  0
  9  7  2  0  0  0  0
M  END
> <Inchi_key>
UQRLKWGPEVNVHT-UHFFFAOYSA-N

> <Source>
Mulliner

> <ID>
HT0035

> <H_MFHB>
0

> <CAS>


> <Cholestasis>


> <Name>
3,5-dichloroaniline hydrochloride

> <Class>
0

$$$$