

  -INDIGO-08031710012D

 21 21  0  0  0  0  0  0  0  0999 V2000
   -2.6247   -7.7676    0.0000 O   0  0  0  0  0  0  0  0  0  0  0  0
   -2.6247   -6.2676    0.0000 C   0  0  0  0  0  0  0  0  0  0  0  0
   -3.9238   -5.5175    0.0000 O   0  0  0  0  0  0  0  0  0  0  0  0
   -1.3257   -5.5175    0.0000 C   0  0  0  0  0  0  0  0  0  0  0  0
   -1.3257   -4.0175    0.0000 O   0  0  0  0  0  0  0  0  0  0  0  0
   -0.0266   -6.2676    0.0000 N   0  0  0  0  0  0  0  0  0  0  0  0
    1.2724   -5.5175    0.0000 C   0  0  0  0  0  0  0  0  0  0  0  0
    1.2724   -4.0175    0.0000 C   0  0  0  0  0  0  0  0  0  0  0  0
    2.5715   -3.2676    0.0000 C   0  0  0  0  0  0  0  0  0  0  0  0
    3.8704   -4.0175    0.0000 C   0  0  0  0  0  0  0  0  0  0  0  0
    3.8704   -5.5175    0.0000 C   0  0  0  0  0  0  0  0  0  0  0  0
    5.1696   -6.2676    0.0000 N   0  0  0  0  0  0  0  0  0  0  0  0
    6.4685   -5.5175    0.0000 C   0  0  0  0  0  0  0  0  0  0  0  0
    6.4685   -4.0175    0.0000 O   0  0  0  0  0  0  0  0  0  0  0  0
    7.7677   -6.2676    0.0000 C   0  0  0  0  0  0  0  0  0  0  0  0
    9.0666   -5.5175    0.0000 O   0  0  0  0  0  0  0  0  0  0  0  0
    7.7677   -7.7676    0.0000 O   0  0  0  0  0  0  0  0  0  0  0  0
    2.5715   -6.2676    0.0000 C   0  0  0  0  0  0  0  0  0  0  0  0
    2.5715   -7.7676    0.0000 Cl  0  0  0  0  0  0  0  0  0  0  0  0
    2.5715   -1.7676    0.0000 C   0  0  0  0  0  0  0  0  0  0  0  0
    2.5715   -0.2676    0.0000 N   0  0  0  0  0  0  0  0  0  0  0  0
  1  2  1  0  0  0  0
  2  3  2  0  0  0  0
  2  4  1  0  0  0  0
  4  5  2  0  0  0  0
  4  6  1  0  0  0  0
  6  7  1  0  0  0  0
  8  7  2  0  0  0  0
  7 18  1  0  0  0  0
  9  8  1  0  0  0  0
 10  9  2  0  0  0  0
  9 20  1  0  0  0  0
 11 10  1  0  0  0  0
 11 12  1  0  0  0  0
 18 11  2  0  0  0  0
 12 13  1  0  0  0  0
 13 14  2  0  0  0  0
 13 15  1  0  0  0  0
 15 16  2  0  0  0  0
 15 17  1  0  0  0  0
 18 19  1  0  0  0  0
 20 21  3  0  0  0  0
M  END
> <Inchi_key>
RVGLGHVJXCETIO-UHFFFAOYSA-N

> <Source>
Mulliner , Kotsampasakou

> <ID>
EK0305;HT1226

> <H_MFHB>
0

> <CAS>


> <Cholestasis>
0

> <Name>
lodoxamide;lodoxamide tromethamine

> <Class>
0


$$$$