

  -INDIGO-08031710012D

 21 22  0  0  0  0  0  0  0  0999 V2000
   -0.3951   -3.4744    0.0000 C   0  0  0  0  0  0  0  0  0  0  0  0
    0.9040   -2.7244    0.0000 C   0  0  0  0  0  0  0  0  0  0  0  0
    0.9040   -1.2244    0.0000 C   0  0  0  0  0  0  0  0  0  0  0  0
    2.2029   -0.4744    0.0000 C   0  0  0  0  0  0  0  0  0  0  0  0
    3.5020   -1.2244    0.0000 C   0  0  0  0  0  0  0  0  0  0  0  0
    3.5020   -2.7244    0.0000 C   0  0  0  0  0  0  0  0  0  0  0  0
    4.8011   -3.4744    0.0000 N   0  0  0  0  0  0  0  0  0  0  0  0
    6.1002   -2.7244    0.0000 C   0  0  0  0  0  0  0  0  0  0  0  0
    6.1002   -1.2244    0.0000 C   0  0  0  0  0  0  0  0  0  0  0  0
    7.3991   -0.4744    0.0000 C   0  0  0  0  0  0  0  0  0  0  0  0
    7.3991    1.0256    0.0000 Cl  0  0  0  0  0  0  0  0  0  0  0  0
    8.6982   -1.2244    0.0000 N   0  0  0  0  0  0  0  0  0  0  0  0
    8.6982   -2.7244    0.0000 C   0  0  0  0  0  0  0  0  0  0  0  0
    9.9973   -3.4744    0.0000 S   0  0  0  0  0  0  0  0  0  0  0  0
   11.2964   -2.7244    0.0000 C   0  0  0  0  0  0  0  0  0  0  0  0
   12.5953   -3.4744    0.0000 C   0  0  0  0  0  0  0  0  0  0  0  0
   12.5953   -4.9744    0.0000 O   0  0  0  0  0  0  0  0  0  0  0  0
   13.8944   -2.7244    0.0000 O   0  0  0  0  0  0  0  0  0  0  0  0
    7.3991   -3.4744    0.0000 N   0  0  0  0  0  0  0  0  0  0  0  0
    2.2029   -3.4744    0.0000 C   0  0  0  0  0  0  0  0  0  0  0  0
    2.2029   -4.9744    0.0000 C   0  0  0  0  0  0  0  0  0  0  0  0
  1  2  1  0  0  0  0
  3  2  2  0  0  0  0
  2 20  1  0  0  0  0
  4  3  1  0  0  0  0
  5  4  2  0  0  0  0
  6  5  1  0  0  0  0
  6  7  1  0  0  0  0
 20  6  2  0  0  0  0
  7  8  1  0  0  0  0
  9  8  2  0  0  0  0
  8 19  1  0  0  0  0
 10  9  1  0  0  0  0
 10 11  1  0  0  0  0
 12 10  2  0  0  0  0
 13 12  1  0  0  0  0
 13 14  1  0  0  0  0
 19 13  2  0  0  0  0
 14 15  1  0  0  0  0
 15 16  1  0  0  0  0
 16 17  2  0  0  0  0
 16 18  1  0  0  0  0
 20 21  1  0  0  0  0
M  END
> <Inchi_key>
SZRPDCCEHVWOJX-UHFFFAOYSA-N

> <Source>
Mulliner

> <ID>
HT2197

> <H_MFHB>
0

> <CAS>
50892-23-4

> <Cholestasis>


> <Name>
wy-14643

> <Class>
0


$$$$