
  -INDIGO-08031710012D

 21 23  0  0  0  0  0  0  0  0999 V2000
   -0.1448    1.8026    0.0000 C   0  0  0  0  0  0  0  0  0  0  0  0
    1.2212    1.1828    0.0000 N   0  0  0  0  0  0  0  0  0  0  0  0
    1.2565   -0.3167    0.0000 C   0  0  0  0  0  0  0  0  0  0  0  0
   -0.0796   -0.9988    0.0000 O   0  0  0  0  0  0  0  0  0  0  0  0
    2.4504   -1.2249    0.0000 C   0  0  0  0  0  0  0  0  0  0  0  0
    2.1498   -2.6945    0.0000 O   0  0  0  0  0  0  0  0  0  0  0  0
    3.9048   -0.8583    0.0000 N   0  0  0  0  0  0  0  0  0  0  0  0
    4.5257    0.5071    0.0000 C   0  0  0  0  0  0  0  0  0  0  0  0
    6.0254    0.5410    0.0000 C   0  0  0  0  0  0  0  0  0  0  0  0
    6.7459    1.8565    0.0000 C   0  0  0  0  0  0  0  0  0  0  0  0
    8.2455    1.8905    0.0000 C   0  0  0  0  0  0  0  0  0  0  0  0
    9.0246    0.6087    0.0000 C   0  0  0  0  0  0  0  0  0  0  0  0
    8.3042   -0.7069    0.0000 C   0  0  0  0  0  0  0  0  0  0  0  0
    6.8046   -0.7408    0.0000 C   0  0  0  0  0  0  0  0  0  0  0  0
    3.8424    1.8433    0.0000 C   0  0  0  0  0  0  0  0  0  0  0  0
    4.8375    2.9658    0.0000 C   0  0  0  0  0  0  0  0  0  0  0  0
    4.3629    4.3888    0.0000 C   0  0  0  0  0  0  0  0  0  0  0  0
    5.3580    5.5112    0.0000 Cl  0  0  0  0  0  0  0  0  0  0  0  0
    2.8933    4.6892    0.0000 C   0  0  0  0  0  0  0  0  0  0  0  0
    1.8983    3.5668    0.0000 C   0  0  0  0  0  0  0  0  0  0  0  0
    2.3729    2.1438    0.0000 C   0  0  0  0  0  0  0  0  0  0  0  0
  1  2  1  0  0  0  0
  3  2  1  0  0  0  0
  2 21  1  0  0  0  0
  3  4  2  0  0  0  0
  5  3  1  0  0  0  0
  5  6  1  0  0  0  0
  7  5  1  0  0  0  0
  8  7  2  0  0  0  0
  8  9  1  0  0  0  0
 15  8  1  0  0  0  0
 10  9  2  0  0  0  0
  9 14  1  0  0  0  0
 11 10  1  0  0  0  0
 12 11  2  0  0  0  0
 13 12  1  0  0  0  0
 14 13  2  0  0  0  0
 16 15  2  0  0  0  0
 15 21  1  0  0  0  0
 17 16  1  0  0  0  0
 17 18  1  0  0  0  0
 19 17  2  0  0  0  0
 20 19  1  0  0  0  0
 21 20  2  0  0  0  0
M  END
> <Inchi_key>
SEQDDYPDSLOBDC-UHFFFAOYSA-N

> <Source>
Mulliner , Kotsampasakou

> <ID>
EK0506;HT1997

> <H_MFHB>
0

> <CAS>


> <Cholestasis>
0

> <Name>
temazepam

> <Class>
0

$$$$