
  -INDIGO-08031709442D

 20 22  0  0  0  0  0  0  0  0999 V2000
    0.1147    1.5971    0.0000 S   0  0  0  0  0  0  0  0  0  0  0  0
    0.1147    0.0971    0.0000 C   0  0  0  0  0  0  0  0  0  0  0  0
    1.4137   -0.6528    0.0000 C   0  0  0  0  0  0  0  0  0  0  0  0
    2.7128    0.0971    0.0000 N   0  0  0  0  0  0  0  0  0  0  0  0
    2.7128    1.5971    0.0000 C   0  0  0  0  0  0  0  0  0  0  0  0
    1.4137    2.3472    0.0000 C   0  0  0  0  0  0  0  0  0  0  0  0
    1.4137    3.8472    0.0000 C   0  0  0  0  0  0  0  0  0  0  0  0
    2.7128    4.5971    0.0000 C   0  0  0  0  0  0  0  0  0  0  0  0
    4.0118    3.8472    0.0000 C   0  0  0  0  0  0  0  0  0  0  0  0
    4.0118    2.3472    0.0000 C   0  0  0  0  0  0  0  0  0  0  0  0
    4.0118   -0.6528    0.0000 C   0  0  0  0  0  0  0  0  0  0  0  0
    5.3107    0.0971    0.0000 C   0  0  0  0  0  0  0  0  0  0  0  0
    6.6099   -0.6528    0.0000 C   0  0  0  0  0  0  0  0  0  0  0  0
    7.9088    0.0971    0.0000 N   0  0  0  0  0  0  0  0  0  0  0  0
    7.9088    1.5971    0.0000 C   0  0  0  0  0  0  0  0  0  0  0  0
    9.2079   -0.6528    0.0000 C   0  0  0  0  0  0  0  0  0  0  0  0
    1.4137   -2.1528    0.0000 C   0  0  0  0  0  0  0  0  0  0  0  0
    0.1147   -2.9029    0.0000 C   0  0  0  0  0  0  0  0  0  0  0  0
   -1.1844   -2.1528    0.0000 C   0  0  0  0  0  0  0  0  0  0  0  0
   -1.1844   -0.6528    0.0000 C   0  0  0  0  0  0  0  0  0  0  0  0
  2  1  1  0  0  0  0
  1  6  1  0  0  0  0
  2  3  2  0  0  0  0
 20  2  1  0  0  0  0
  4  3  1  0  0  0  0
  3 17  1  0  0  0  0
  5  4  1  0  0  0  0
  4 11  1  0  0  0  0
  5  6  2  0  0  0  0
 10  5  1  0  0  0  0
  6  7  1  0  0  0  0
  7  8  2  0  0  0  0
  8  9  1  0  0  0  0
  9 10  2  0  0  0  0
 11 12  1  0  0  0  0
 12 13  1  0  0  0  0
 13 14  1  0  0  0  0
 14 15  1  0  0  0  0
 14 16  1  0  0  0  0
 17 18  2  0  0  0  0
 18 19  1  0  0  0  0
 19 20  2  0  0  0  0
M  END
> <Inchi_key>
ZGUGWUXLJSTTMA-UHFFFAOYSA-N

> <Source>
Kotsampasakou

> <ID>
EK0447

> <H_MFHB>


> <CAS>


> <Cholestasis>
0

> <Name>
promazine

> <Class>
0

$$$$