

  -INDIGO-08031709442D

 35 38  0  0  0  0  0  0  0  0999 V2000
   -7.3323   -1.9647    0.0000 O   0  0  0  0  0  0  0  0  0  0  0  0
   -8.6314   -2.7146    0.0000 C   0  0  0  0  0  0  0  0  0  0  0  0
   -9.9305   -1.9647    0.0000 O   0  0  0  0  0  0  0  0  0  0  0  0
   -8.6314   -4.2148    0.0000 C   0  0  0  0  0  0  0  0  0  0  0  0
   -7.3323   -4.9647    0.0000 C   0  0  0  0  0  0  0  0  0  0  0  0
   -7.3323   -6.4647    0.0000 N   0  0  0  0  0  0  0  0  0  0  0  0
   -6.0336   -7.2148    0.0000 C   0  0  0  0  0  0  0  0  0  0  0  0
   -6.0336   -8.7146    0.0000 O   0  0  0  0  0  0  0  0  0  0  0  0
   -4.7345   -6.4647    0.0000 C   0  0  0  0  0  0  0  0  0  0  0  0
   -3.4354   -7.2148    0.0000 C   0  0  0  0  0  0  0  0  0  0  0  0
   -2.1363   -6.4647    0.0000 C   0  0  0  0  0  0  0  0  0  0  0  0
   -0.7099   -6.9283    0.0000 N   0  0  0  0  0  0  0  0  0  0  0  0
    0.1720   -5.7148    0.0000 C   0  0  0  0  0  0  0  0  0  0  0  0
   -0.7099   -4.5012    0.0000 N   0  0  0  0  0  0  0  0  0  0  0  0
   -2.1363   -4.9647    0.0000 C   0  0  0  0  0  0  0  0  0  0  0  0
   -3.4354   -4.2148    0.0000 C   0  0  0  0  0  0  0  0  0  0  0  0
   -4.7345   -4.9647    0.0000 C   0  0  0  0  0  0  0  0  0  0  0  0
   -0.2461   -3.0746    0.0000 C   0  0  0  0  0  0  0  0  0  0  0  0
    1.6719   -5.7148    0.0000 C   0  0  0  0  0  0  0  0  0  0  0  0
    2.4218   -7.0138    0.0000 N   0  0  0  0  0  0  0  0  0  0  0  0
    3.9220   -7.0138    0.0000 C   0  0  0  0  0  0  0  0  0  0  0  0
    4.6720   -8.3128    0.0000 C   0  0  0  0  0  0  0  0  0  0  0  0
    6.1718   -8.3128    0.0000 C   0  0  0  0  0  0  0  0  0  0  0  0
    6.9218   -7.0138    0.0000 C   0  0  0  0  0  0  0  0  0  0  0  0
    6.1718   -5.7148    0.0000 C   0  0  0  0  0  0  0  0  0  0  0  0
    4.6720   -5.7148    0.0000 C   0  0  0  0  0  0  0  0  0  0  0  0
    8.4220   -7.0138    0.0000 C   0  0  0  0  0  0  0  0  0  0  0  0
    9.1719   -8.3128    0.0000 N   0  0  0  0  0  0  0  0  0  0  0  0
    9.1719   -5.7148    0.0000 N   0  0  0  0  0  0  0  0  0  0  0  0
   -8.6314   -7.2148    0.0000 C   0  0  0  0  0  0  0  0  0  0  0  0
   -9.9305   -6.4647    0.0000 N   0  0  0  0  0  0  0  0  0  0  0  0
  -11.2296   -7.2148    0.0000 C   0  0  0  0  0  0  0  0  0  0  0  0
  -11.2296   -8.7146    0.0000 C   0  0  0  0  0  0  0  0  0  0  0  0
   -9.9305   -9.4647    0.0000 C   0  0  0  0  0  0  0  0  0  0  0  0
   -8.6314   -8.7146    0.0000 C   0  0  0  0  0  0  0  0  0  0  0  0
  1  2  1  0  0  0  0
  2  3  2  0  0  0  0
  2  4  1  0  0  0  0
  4  5  1  0  0  0  0
  5  6  1  0  0  0  0
  6  7  1  0  0  0  0
  6 30  1  0  0  0  0
  7  8  2  0  0  0  0
  7  9  1  0  0  0  0
 10  9  2  0  0  0  0
  9 17  1  0  0  0  0
 11 10  1  0  0  0  0
 12 11  1  0  0  0  0
 11 15  2  0  0  0  0
 13 12  2  0  0  0  0
 14 13  1  0  0  0  0
 13 19  1  0  0  0  0
 15 14  1  0  0  0  0
 14 18  1  0  0  0  0
 16 15  1  0  0  0  0
 17 16  2  0  0  0  0
 19 20  1  0  0  0  0
 20 21  1  0  0  0  0
 22 21  2  0  0  0  0
 21 26  1  0  0  0  0
 23 22  1  0  0  0  0
 24 23  2  0  0  0  0
 25 24  1  0  0  0  0
 24 27  1  0  0  0  0
 26 25  2  0  0  0  0
 27 28  1  0  0  0  0
 27 29  2  0  0  0  0
 31 30  2  0  0  0  0
 30 35  1  0  0  0  0
 32 31  1  0  0  0  0
 33 32  2  0  0  0  0
 34 33  1  0  0  0  0
 35 34  2  0  0  0  0
M  END
> <Inchi_key>
YBSJFWOBGCMAKL-UHFFFAOYSA-N

> <Source>
Kotsampasakou

> <ID>
EK0145

> <H_MFHB>


> <CAS>


> <Cholestasis>
0

> <Name>
dabigatran

> <Class>
0


$$$$