
  -INDIGO-08031710012D

 12 12  0  0  0  0  0  0  0  0999 V2000
    2.6462   -0.7288    0.0000 O   0  0  0  0  0  0  0  0  0  0  0  0
    2.6462   -2.2288    0.0000 S   0  0  0  0  0  0  0  0  0  0  0  0
    2.6462   -3.7288    0.0000 O   0  0  0  0  0  0  0  0  0  0  0  0
    4.1462   -2.2288    0.0000 O   0  0  0  0  0  0  0  0  0  0  0  0
    1.1462   -2.2288    0.0000 C   0  0  0  0  0  0  0  0  0  0  0  0
    0.3962   -3.5278    0.0000 C   0  0  0  0  0  0  0  0  0  0  0  0
   -1.1038   -3.5278    0.0000 C   0  0  0  0  0  0  0  0  0  0  0  0
   -1.8538   -2.2288    0.0000 C   0  0  0  0  0  0  0  0  0  0  0  0
   -1.1038   -0.9297    0.0000 C   0  0  0  0  0  0  0  0  0  0  0  0
    0.3962   -0.9297    0.0000 C   0  0  0  0  0  0  0  0  0  0  0  0
    1.1462    0.3693    0.0000 C   0  0  0  0  0  0  0  0  0  0  0  0
    0.3962    1.6683    0.0000 C   0  0  0  0  0  0  0  0  0  0  0  0
  1  2  2  0  0  0  0
  2  3  2  0  0  0  0
  2  4  1  0  0  0  0
  2  5  1  0  0  0  0
  6  5  2  0  0  0  0
  5 10  1  0  0  0  0
  7  6  1  0  0  0  0
  8  7  2  0  0  0  0
  9  8  1  0  0  0  0
 10  9  2  0  0  0  0
 10 11  1  0  0  0  0
 11 12  2  0  0  0  0
M  END
> <Inchi_key>
VMSBGXAJJLPWKV-UHFFFAOYSA-N

> <Source>
Mulliner

> <ID>
HT1707

> <H_MFHB>
0

> <CAS>


> <Cholestasis>


> <Name>
polystyrene sulfonate

> <Class>
0

$$$$