
  -INDIGO-08031710012D

 27 30  0  0  0  0  0  0  0  0999 V2000
    0.5832    2.1911    0.0000 C   0  0  0  0  0  0  0  0  0  0  0  0
    1.8848    1.4453    0.0000 C   0  0  0  0  0  0  0  0  0  0  0  0
    3.2530    2.0599    0.0000 C   0  0  0  0  0  0  0  0  0  0  0  0
    4.2605    0.9485    0.0000 C   0  0  0  0  0  0  0  0  0  0  0  0
    5.7604    0.9534    0.0000 C   0  0  0  0  0  0  0  0  0  0  0  0
    6.5063    2.2549    0.0000 C   0  0  0  0  0  0  0  0  0  0  0  0
    8.0062    2.2597    0.0000 C   0  0  0  0  0  0  0  0  0  0  0  0
    8.7605    0.9632    0.0000 C   0  0  0  0  0  0  0  0  0  0  0  0
   10.2604    0.9680    0.0000 C   0  0  0  0  0  0  0  0  0  0  0  0
   11.0147   -0.3285    0.0000 C   0  0  0  0  0  0  0  0  0  0  0  0
   12.5146   -0.3236    0.0000 O   0  0  0  0  0  0  0  0  0  0  0  0
   10.2688   -1.6300    0.0000 C   0  0  0  0  0  0  0  0  0  0  0  0
    8.7689   -1.6349    0.0000 C   0  0  0  0  0  0  0  0  0  0  0  0
    8.0146   -0.3383    0.0000 C   0  0  0  0  0  0  0  0  0  0  0  0
    7.2689   -1.6398    0.0000 C   0  0  0  0  0  0  0  0  0  0  0  0
    6.5147   -0.3432    0.0000 C   0  0  0  0  0  0  0  0  0  0  0  0
    5.0145   -0.3481    0.0000 F   0  0  0  0  0  0  0  0  0  0  0  0
    5.7688   -1.6447    0.0000 C   0  0  0  0  0  0  0  0  0  0  0  0
    6.5231   -2.9413    0.0000 O   0  0  0  0  0  0  0  0  0  0  0  0
    4.2689   -1.6496    0.0000 C   0  0  0  0  0  0  0  0  0  0  0  0
    3.5146   -0.3530    0.0000 C   0  0  0  0  0  0  0  0  0  0  0  0
    2.6582   -1.5845    0.0000 C   0  0  0  0  0  0  0  0  0  0  0  0
    2.0463   -0.0459    0.0000 C   0  0  0  0  0  0  0  0  0  0  0  0
    0.9351   -1.0532    0.0000 C   0  0  0  0  0  0  0  0  0  0  0  0
    1.2516   -2.5194    0.0000 O   0  0  0  0  0  0  0  0  0  0  0  0
   -0.4931   -0.5944    0.0000 C   0  0  0  0  0  0  0  0  0  0  0  0
   -1.6046   -1.6017    0.0000 O   0  0  0  0  0  0  0  0  0  0  0  0
  1  2  1  0  0  0  0
  3  2  1  0  0  0  0
  2 23  1  0  0  0  0
  4  3  1  0  0  0  0
  5  4  1  0  0  0  0
  4 21  1  0  0  0  0
  6  5  1  0  0  0  0
  5 16  1  0  0  0  0
  7  6  1  0  0  0  0
  8  7  1  0  0  0  0
  9  8  2  0  0  0  0
  8 14  1  0  0  0  0
 10  9  1  0  0  0  0
 10 11  2  0  0  0  0
 12 10  1  0  0  0  0
 13 12  2  0  0  0  0
 14 13  1  0  0  0  0
 14 15  1  0  0  0  0
 16 14  1  0  0  0  0
 16 17  1  0  0  0  0
 18 16  1  0  0  0  0
 18 19  1  0  0  0  0
 20 18  1  0  0  0  0
 21 20  1  0  0  0  0
 21 22  1  0  0  0  0
 23 21  1  0  0  0  0
 23 24  1  0  0  0  0
 24 25  2  0  0  0  0
 24 26  1  0  0  0  0
 26 27  1  0  0  0  0
M  END
> <Inchi_key>
VWVSBHGCDBMOOT-UHFFFAOYSA-N

> <Source>
Mulliner , Kotsampasakou

> <ID>
EK0153;HT0617

> <H_MFHB>
0

> <CAS>


> <Cholestasis>
0

> <Name>
desoximetasone

> <Class>
0

$$$$