
  -INDIGO-08031710012D

 30 33  0  0  0  0  0  0  0  0999 V2000
   -1.4250    2.4682    0.0000 C   0  0  0  0  0  0  0  0  0  0  0  0
   -0.6749    3.7672    0.0000 C   0  0  0  0  0  0  0  0  0  0  0  0
    0.8250    3.7672    0.0000 C   0  0  0  0  0  0  0  0  0  0  0  0
    1.5751    2.4682    0.0000 O   0  0  0  0  0  0  0  0  0  0  0  0
    1.5751    5.0661    0.0000 C   0  0  0  0  0  0  0  0  0  0  0  0
    0.8250    6.3654    0.0000 C   0  0  0  0  0  0  0  0  0  0  0  0
    1.5751    7.6643    0.0000 C   0  0  0  0  0  0  0  0  0  0  0  0
    3.0751    7.6643    0.0000 C   0  0  0  0  0  0  0  0  0  0  0  0
    3.8249    8.9634    0.0000 S   0  0  0  0  0  0  0  0  0  0  0  0
    5.3251    8.9634    0.0000 C   0  0  0  0  0  0  0  0  0  0  0  0
    6.0749   10.2624    0.0000 C   0  0  0  0  0  0  0  0  0  0  0  0
    7.5751   10.2624    0.0000 C   0  0  0  0  0  0  0  0  0  0  0  0
    8.3250    8.9634    0.0000 C   0  0  0  0  0  0  0  0  0  0  0  0
    7.5751    7.6643    0.0000 C   0  0  0  0  0  0  0  0  0  0  0  0
    6.0749    7.6643    0.0000 C   0  0  0  0  0  0  0  0  0  0  0  0
    5.3251    6.3654    0.0000 N   0  0  0  0  0  0  0  0  0  0  0  0
    6.0749    5.0661    0.0000 C   0  0  0  0  0  0  0  0  0  0  0  0
    7.5751    5.0661    0.0000 C   0  0  0  0  0  0  0  0  0  0  0  0
    8.3250    3.7672    0.0000 C   0  0  0  0  0  0  0  0  0  0  0  0
    9.8249    3.7672    0.0000 N   0  0  0  0  0  0  0  0  0  0  0  0
   10.5750    5.0661    0.0000 C   0  0  0  0  0  0  0  0  0  0  0  0
   12.0749    5.0661    0.0000 C   0  0  0  0  0  0  0  0  0  0  0  0
   12.8250    3.7672    0.0000 N   0  0  0  0  0  0  0  0  0  0  0  0
   14.3250    3.7672    0.0000 C   0  0  0  0  0  0  0  0  0  0  0  0
   15.0751    2.4682    0.0000 C   0  0  0  0  0  0  0  0  0  0  0  0
   16.5750    2.4682    0.0000 O   0  0  0  0  0  0  0  0  0  0  0  0
   12.0749    2.4682    0.0000 C   0  0  0  0  0  0  0  0  0  0  0  0
   10.5750    2.4682    0.0000 C   0  0  0  0  0  0  0  0  0  0  0  0
    3.8249    6.3654    0.0000 C   0  0  0  0  0  0  0  0  0  0  0  0
    3.0751    5.0661    0.0000 C   0  0  0  0  0  0  0  0  0  0  0  0
  1  2  1  0  0  0  0
  2  3  1  0  0  0  0
  3  4  2  0  0  0  0
  3  5  1  0  0  0  0
  6  5  2  0  0  0  0
  5 30  1  0  0  0  0
  7  6  1  0  0  0  0
  8  7  2  0  0  0  0
  9  8  1  0  0  0  0
  8 29  1  0  0  0  0
 10  9  1  0  0  0  0
 11 10  2  0  0  0  0
 10 15  1  0  0  0  0
 12 11  1  0  0  0  0
 13 12  2  0  0  0  0
 14 13  1  0  0  0  0
 15 14  2  0  0  0  0
 16 15  1  0  0  0  0
 16 17  1  0  0  0  0
 29 16  1  0  0  0  0
 17 18  1  0  0  0  0
 18 19  1  0  0  0  0
 19 20  1  0  0  0  0
 21 20  1  0  0  0  0
 20 28  1  0  0  0  0
 22 21  1  0  0  0  0
 23 22  1  0  0  0  0
 23 24  1  0  0  0  0
 27 23  1  0  0  0  0
 24 25  1  0  0  0  0
 25 26  1  0  0  0  0
 28 27  1  0  0  0  0
 30 29  2  0  0  0  0
M  END
> <Inchi_key>
XZSMZRXAEFNJCU-UHFFFAOYSA-N

> <Source>
Mulliner

> <ID>
HT3809

> <H_MFHB>
0

> <CAS>


> <Cholestasis>


> <Name>


> <Class>
0

$$$$