
  -INDIGO-08031710012D

 30 33  0  0  0  0  0  0  0  0999 V2000
   17.0701    4.6653    0.0000 C   0  0  0  0  0  0  0  0  0  0  0  0
   15.5825    4.8571    0.0000 C   0  0  0  0  0  0  0  0  0  0  0  0
   15.0045    6.2413    0.0000 O   0  0  0  0  0  0  0  0  0  0  0  0
   14.6725    3.6645    0.0000 O   0  0  0  0  0  0  0  0  0  0  0  0
   13.1849    3.8563    0.0000 C   0  0  0  0  0  0  0  0  0  0  0  0
   12.2750    2.6637    0.0000 C   0  0  0  0  0  0  0  0  0  0  0  0
   12.8529    1.2795    0.0000 O   0  0  0  0  0  0  0  0  0  0  0  0
   10.7874    2.8555    0.0000 C   0  0  0  0  0  0  0  0  0  0  0  0
   11.3165    1.4519    0.0000 O   0  0  0  0  0  0  0  0  0  0  0  0
   10.9010    4.3512    0.0000 C   0  0  0  0  0  0  0  0  0  0  0  0
    9.5135    4.9214    0.0000 C   0  0  0  0  0  0  0  0  0  0  0  0
    8.5425    3.7781    0.0000 C   0  0  0  0  0  0  0  0  0  0  0  0
    7.0431    3.7348    0.0000 C   0  0  0  0  0  0  0  0  0  0  0  0
    6.2558    5.0116    0.0000 C   0  0  0  0  0  0  0  0  0  0  0  0
    4.7564    4.9682    0.0000 C   0  0  0  0  0  0  0  0  0  0  0  0
    4.0444    3.6480    0.0000 C   0  0  0  0  0  0  0  0  0  0  0  0
    2.5448    3.6047    0.0000 C   0  0  0  0  0  0  0  0  0  0  0  0
    1.8328    2.2845    0.0000 C   0  0  0  0  0  0  0  0  0  0  0  0
    0.3334    2.2411    0.0000 O   0  0  0  0  0  0  0  0  0  0  0  0
    2.6201    1.0077    0.0000 C   0  0  0  0  0  0  0  0  0  0  0  0
    4.1195    1.0510    0.0000 C   0  0  0  0  0  0  0  0  0  0  0  0
    4.8315    2.3712    0.0000 C   0  0  0  0  0  0  0  0  0  0  0  0
    5.6189    1.0944    0.0000 C   0  0  0  0  0  0  0  0  0  0  0  0
    6.3309    2.4146    0.0000 C   0  0  0  0  0  0  0  0  0  0  0  0
    7.8302    2.4579    0.0000 F   0  0  0  0  0  0  0  0  0  0  0  0
    7.1182    1.1378    0.0000 C   0  0  0  0  0  0  0  0  0  0  0  0
    6.4060   -0.1824    0.0000 O   0  0  0  0  0  0  0  0  0  0  0  0
    8.6176    1.1811    0.0000 C   0  0  0  0  0  0  0  0  0  0  0  0
    9.3296    2.5013    0.0000 C   0  0  0  0  0  0  0  0  0  0  0  0
   10.2253    1.2980    0.0000 C   0  0  0  0  0  0  0  0  0  0  0  0
  1  2  1  0  0  0  0
  2  3  2  0  0  0  0
  2  4  1  0  0  0  0
  4  5  1  0  0  0  0
  5  6  1  0  0  0  0
  6  7  2  0  0  0  0
  6  8  1  0  0  0  0
  8  9  1  0  0  0  0
 10  8  1  0  0  0  0
  8 29  1  0  0  0  0
 11 10  1  0  0  0  0
 12 11  1  0  0  0  0
 13 12  1  0  0  0  0
 12 29  1  0  0  0  0
 14 13  1  0  0  0  0
 13 24  1  0  0  0  0
 15 14  1  0  0  0  0
 16 15  1  0  0  0  0
 17 16  2  0  0  0  0
 16 22  1  0  0  0  0
 18 17  1  0  0  0  0
 18 19  2  0  0  0  0
 20 18  1  0  0  0  0
 21 20  1  0  0  0  0
 22 21  1  0  0  0  0
 22 23  1  0  0  0  0
 24 22  1  0  0  0  0
 24 25  1  0  0  0  0
 26 24  1  0  0  0  0
 26 27  1  0  0  0  0
 28 26  1  0  0  0  0
 29 28  1  0  0  0  0
 29 30  1  0  0  0  0
M  END
> <Inchi_key>
SYWHXTATXSMDSB-UHFFFAOYSA-N

> <Source>
Mulliner , Kotsampasakou

> <ID>
EK0220;HT0894

> <H_MFHB>
0

> <CAS>


> <Cholestasis>
0

> <Name>
fludrocortisone acetate

> <Class>
0

$$$$