

  -INDIGO-08031710012D

 14 15  0  0  0  0  0  0  0  0999 V2000
    0.9376   -1.6435    0.0000 O   0  0  0  0  0  0  0  0  0  0  0  0
    2.2367   -0.8935    0.0000 C   0  0  0  0  0  0  0  0  0  0  0  0
    3.5357   -1.6435    0.0000 C   0  0  0  0  0  0  0  0  0  0  0  0
    4.8348   -0.8935    0.0000 C   0  0  0  0  0  0  0  0  0  0  0  0
    4.8348    0.6065    0.0000 C   0  0  0  0  0  0  0  0  0  0  0  0
    3.5357    1.3565    0.0000 C   0  0  0  0  0  0  0  0  0  0  0  0
    3.5357    2.8565    0.0000 C   0  0  0  0  0  0  0  0  0  0  0  0
    2.2367    3.6065    0.0000 C   0  0  0  0  0  0  0  0  0  0  0  0
    0.9376    2.8565    0.0000 C   0  0  0  0  0  0  0  0  0  0  0  0
    0.9376    1.3565    0.0000 N   0  0  0  0  0  0  0  0  0  0  0  0
    2.2367    0.6065    0.0000 C   0  0  0  0  0  0  0  0  0  0  0  0
    6.1338    1.3565    0.0000 N   0  0  0  0  0  0  0  0  0  0  0  0
    7.4328    0.6065    0.0000 O   0  0  0  0  0  0  0  0  0  0  0  0
    6.1338    2.8565    0.0000 O   0  0  0  0  0  0  0  0  0  0  0  0
  1  2  1  0  0  0  0
  3  2  2  0  0  0  0
  2 11  1  0  0  0  0
  4  3  1  0  0  0  0
  5  4  2  0  0  0  0
  6  5  1  0  0  0  0
  5 12  1  0  0  0  0
  7  6  1  0  0  0  0
  6 11  2  0  0  0  0
  8  7  2  0  0  0  0
  9  8  1  0  0  0  0
 10  9  2  0  0  0  0
 11 10  1  0  0  0  0
 12 13  2  0  0  0  0
 12 14  1  0  0  0  0
M  CHG  2  12   1  14  -1
M  END
> <Inchi_key>
RJIWZDNTCBHXAL-UHFFFAOYSA-N

> <Source>
Mulliner

> <ID>
HT1512

> <H_MFHB>
0

> <CAS>


> <Cholestasis>


> <Name>
nitroxoline

> <Class>
0


$$$$