

  -INDIGO-08031710012D

 14 15  0  0  0  0  0  0  0  0999 V2000
   10.1430    2.7178    0.0000 C   0  0  0  0  0  0  0  0  0  0  0  0
    8.8439    1.9678    0.0000 N   0  0  0  0  0  0  0  0  0  0  0  0
    7.5450    2.7178    0.0000 C   0  0  0  0  0  0  0  0  0  0  0  0
    7.5450    4.2178    0.0000 C   0  0  0  0  0  0  0  0  0  0  0  0
    6.2458    1.9678    0.0000 C   0  0  0  0  0  0  0  0  0  0  0  0
    4.9469    2.7178    0.0000 C   0  0  0  0  0  0  0  0  0  0  0  0
    4.9469    4.2178    0.0000 C   0  0  0  0  0  0  0  0  0  0  0  0
    3.6479    4.9678    0.0000 C   0  0  0  0  0  0  0  0  0  0  0  0
    2.3488    4.2178    0.0000 C   0  0  0  0  0  0  0  0  0  0  0  0
    0.9223    4.6813    0.0000 O   0  0  0  0  0  0  0  0  0  0  0  0
    0.0405    3.4678    0.0000 C   0  0  0  0  0  0  0  0  0  0  0  0
    0.9223    2.2543    0.0000 O   0  0  0  0  0  0  0  0  0  0  0  0
    2.3488    2.7178    0.0000 C   0  0  0  0  0  0  0  0  0  0  0  0
    3.6479    1.9678    0.0000 C   0  0  0  0  0  0  0  0  0  0  0  0
  1  2  1  0  0  0  0
  2  3  1  0  0  0  0
  3  4  1  0  0  0  0
  3  5  1  0  0  0  0
  5  6  1  0  0  0  0
  7  6  2  0  0  0  0
  6 14  1  0  0  0  0
  8  7  1  0  0  0  0
  9  8  2  0  0  0  0
 10  9  1  0  0  0  0
  9 13  1  0  0  0  0
 11 10  1  0  0  0  0
 12 11  1  0  0  0  0
 13 12  1  0  0  0  0
 14 13  2  0  0  0  0
M  END
> <Inchi_key>
SHXWCVYOXRDMCX-UHFFFAOYSA-N

> <Source>
Mulliner

> <ID>
HT2825

> <H_MFHB>
0

> <CAS>
42542-10-9

> <Cholestasis>


> <Name>


> <Class>
0


$$$$