

  -INDIGO-08031710012D

 23 23  0  0  0  0  0  0  0  0999 V2000
    8.9169    8.9170    0.0000 C   0  0  0  0  0  0  0  0  0  0  0  0
    8.9169    7.4170    0.0000 C   0  0  0  0  0  0  0  0  0  0  0  0
   10.2160    6.6670    0.0000 C   0  0  0  0  0  0  0  0  0  0  0  0
    7.6178    6.6670    0.0000 C   0  0  0  0  0  0  0  0  0  0  0  0
    7.6178    5.1670    0.0000 O   0  0  0  0  0  0  0  0  0  0  0  0
    6.3189    7.4170    0.0000 O   0  0  0  0  0  0  0  0  0  0  0  0
    5.0198    6.6670    0.0000 C   0  0  0  0  0  0  0  0  0  0  0  0
    5.0198    5.1670    0.0000 C   0  0  0  0  0  0  0  0  0  0  0  0
    3.7207    7.4170    0.0000 O   0  0  0  0  0  0  0  0  0  0  0  0
    2.4219    6.6670    0.0000 C   0  0  0  0  0  0  0  0  0  0  0  0
    2.4219    5.1670    0.0000 O   0  0  0  0  0  0  0  0  0  0  0  0
    1.1228    7.4170    0.0000 N   0  0  0  0  0  0  0  0  0  0  0  0
   -0.1763    6.6670    0.0000 C   0  0  0  0  0  0  0  0  0  0  0  0
   -1.4752    7.4170    0.0000 C   0  0  0  0  0  0  0  0  0  0  0  0
   -1.4752    5.9170    0.0000 C   0  0  0  0  0  0  0  0  0  0  0  0
   -2.7743    5.1670    0.0000 C   0  0  0  0  0  0  0  0  0  0  0  0
   -4.0734    5.9170    0.0000 O   0  0  0  0  0  0  0  0  0  0  0  0
   -2.7743    3.6670    0.0000 O   0  0  0  0  0  0  0  0  0  0  0  0
   -0.7254    8.7160    0.0000 C   0  0  0  0  0  0  0  0  0  0  0  0
   -1.4752   10.0150    0.0000 C   0  0  0  0  0  0  0  0  0  0  0  0
   -2.9753   10.0150    0.0000 C   0  0  0  0  0  0  0  0  0  0  0  0
   -3.7254    8.7160    0.0000 C   0  0  0  0  0  0  0  0  0  0  0  0
   -2.9753    7.4170    0.0000 C   0  0  0  0  0  0  0  0  0  0  0  0
  1  2  1  0  0  0  0
  2  3  1  0  0  0  0
  2  4  1  0  0  0  0
  4  5  2  0  0  0  0
  4  6  1  0  0  0  0
  6  7  1  0  0  0  0
  7  8  1  0  0  0  0
  7  9  1  0  0  0  0
  9 10  1  0  0  0  0
 10 11  2  0  0  0  0
 10 12  1  0  0  0  0
 12 13  1  0  0  0  0
 13 14  1  0  0  0  0
 14 15  1  0  0  0  0
 19 14  1  0  0  0  0
 14 23  1  0  0  0  0
 15 16  1  0  0  0  0
 16 17  2  0  0  0  0
 16 18  1  0  0  0  0
 20 19  1  0  0  0  0
 21 20  1  0  0  0  0
 22 21  1  0  0  0  0
 23 22  1  0  0  0  0
M  END
> <Inchi_key>
TZDUHAJSIBHXDL-UHFFFAOYSA-N

> <Source>
Mulliner

> <ID>
HT0948

> <H_MFHB>
0

> <CAS>


> <Cholestasis>


> <Name>
gabapentin enacarbil

> <Class>
0


$$$$