

  -INDIGO-08031710012D

 24 25  0  0  0  0  0  0  0  0999 V2000
   10.4067  -10.4483    0.0000 C   0  0  0  0  0  0  0  0  0  0  0  0
   10.4125   -8.9483    0.0000 C   0  0  0  0  0  0  0  0  0  0  0  0
    9.1166   -8.1931    0.0000 N   0  0  0  0  0  0  0  0  0  0  0  0
    9.1226   -6.6931    0.0000 C   0  0  0  0  0  0  0  0  0  0  0  0
   10.4246   -5.9483    0.0000 C   0  0  0  0  0  0  0  0  0  0  0  0
    7.8145   -8.9379    0.0000 C   0  0  0  0  0  0  0  0  0  0  0  0
    6.5186   -8.1827    0.0000 C   0  0  0  0  0  0  0  0  0  0  0  0
    5.2166   -8.9276    0.0000 O   0  0  0  0  0  0  0  0  0  0  0  0
    3.9206   -8.1724    0.0000 C   0  0  0  0  0  0  0  0  0  0  0  0
    2.6186   -8.9172    0.0000 C   0  0  0  0  0  0  0  0  0  0  0  0
    1.3224   -8.1620    0.0000 O   0  0  0  0  0  0  0  0  0  0  0  0
    0.0204   -8.9068    0.0000 C   0  0  0  0  0  0  0  0  0  0  0  0
    0.0144  -10.4068    0.0000 O   0  0  0  0  0  0  0  0  0  0  0  0
   -1.2756   -8.1516    0.0000 C   0  0  0  0  0  0  0  0  0  0  0  0
   -1.7199   -9.5843    0.0000 C   0  0  0  0  0  0  0  0  0  0  0  0
   -3.2198   -9.6045    0.0000 C   0  0  0  0  0  0  0  0  0  0  0  0
   -3.7024   -8.1843    0.0000 C   0  0  0  0  0  0  0  0  0  0  0  0
   -2.5008   -7.2864    0.0000 C   0  0  0  0  0  0  0  0  0  0  0  0
   -0.5662   -6.8300    0.0000 C   0  0  0  0  0  0  0  0  0  0  0  0
   -1.5653   -5.7113    0.0000 C   0  0  0  0  0  0  0  0  0  0  0  0
   -1.0960   -4.2866    0.0000 C   0  0  0  0  0  0  0  0  0  0  0  0
    0.3722   -3.9806    0.0000 C   0  0  0  0  0  0  0  0  0  0  0  0
    1.3716   -5.0993    0.0000 C   0  0  0  0  0  0  0  0  0  0  0  0
    0.9023   -6.5240    0.0000 C   0  0  0  0  0  0  0  0  0  0  0  0
  1  2  1  0  0  0  0
  2  3  1  0  0  0  0
  3  4  1  0  0  0  0
  3  6  1  0  0  0  0
  4  5  1  0  0  0  0
  6  7  1  0  0  0  0
  7  8  1  0  0  0  0
  8  9  1  0  0  0  0
  9 10  1  0  0  0  0
 10 11  1  0  0  0  0
 11 12  1  0  0  0  0
 12 13  2  0  0  0  0
 12 14  1  0  0  0  0
 15 14  1  0  0  0  0
 14 18  1  0  0  0  0
 14 19  1  0  0  0  0
 16 15  1  0  0  0  0
 17 16  1  0  0  0  0
 18 17  1  0  0  0  0
 20 19  2  0  0  0  0
 19 24  1  0  0  0  0
 21 20  1  0  0  0  0
 22 21  2  0  0  0  0
 23 22  1  0  0  0  0
 24 23  2  0  0  0  0
M  END
> <Inchi_key>
CFJMRBQWBDQYMK-UHFFFAOYSA-N

> <Source>
Mulliner

> <ID>
HT3523

> <H_MFHB>
0

> <CAS>


> <Cholestasis>


> <Name>


> <Class>
0


$$$$