

  -INDIGO-08031710012D

 25 26  0  0  0  0  0  0  0  0999 V2000
   17.5988   -4.7156    0.0000 C   0  0  0  0  0  0  0  0  0  0  0  0
   16.2998   -3.9656    0.0000 O   0  0  0  0  0  0  0  0  0  0  0  0
   15.0008   -4.7156    0.0000 C   0  0  0  0  0  0  0  0  0  0  0  0
   13.7017   -3.9656    0.0000 C   0  0  0  0  0  0  0  0  0  0  0  0
   12.4027   -4.7156    0.0000 C   0  0  0  0  0  0  0  0  0  0  0  0
   12.4027   -6.2156    0.0000 C   0  0  0  0  0  0  0  0  0  0  0  0
   11.1037   -6.9656    0.0000 C   0  0  0  0  0  0  0  0  0  0  0  0
    9.8044   -6.2156    0.0000 C   0  0  0  0  0  0  0  0  0  0  0  0
    9.8044   -4.7156    0.0000 C   0  0  0  0  0  0  0  0  0  0  0  0
    8.5056   -6.9656    0.0000 N   0  0  0  0  0  0  0  0  0  0  0  0
    7.2066   -6.2156    0.0000 C   0  0  0  0  0  0  0  0  0  0  0  0
    5.9073   -6.9656    0.0000 C   0  0  0  0  0  0  0  0  0  0  0  0
    5.9073   -8.4656    0.0000 O   0  0  0  0  0  0  0  0  0  0  0  0
    4.6083   -6.2156    0.0000 C   0  0  0  0  0  0  0  0  0  0  0  0
    4.6083   -4.7156    0.0000 C   0  0  0  0  0  0  0  0  0  0  0  0
    3.3093   -3.9656    0.0000 C   0  0  0  0  0  0  0  0  0  0  0  0
    2.0102   -4.7156    0.0000 C   0  0  0  0  0  0  0  0  0  0  0  0
    0.7112   -3.9656    0.0000 O   0  0  0  0  0  0  0  0  0  0  0  0
    2.0102   -6.2156    0.0000 C   0  0  0  0  0  0  0  0  0  0  0  0
    0.7112   -6.9656    0.0000 N   0  0  0  0  0  0  0  0  0  0  0  0
    0.7112   -8.4656    0.0000 C   0  0  0  0  0  0  0  0  0  0  0  0
   -0.5878   -9.2156    0.0000 O   0  0  0  0  0  0  0  0  0  0  0  0
    3.3093   -6.9656    0.0000 C   0  0  0  0  0  0  0  0  0  0  0  0
   13.7017   -6.9656    0.0000 C   0  0  0  0  0  0  0  0  0  0  0  0
   15.0008   -6.2156    0.0000 C   0  0  0  0  0  0  0  0  0  0  0  0
  1  2  1  0  0  0  0
  2  3  1  0  0  0  0
  4  3  2  0  0  0  0
  3 25  1  0  0  0  0
  5  4  1  0  0  0  0
  6  5  2  0  0  0  0
  6  7  1  0  0  0  0
 24  6  1  0  0  0  0
  7  8  1  0  0  0  0
  8  9  1  0  0  0  0
  8 10  1  0  0  0  0
 10 11  1  0  0  0  0
 11 12  1  0  0  0  0
 12 13  1  0  0  0  0
 12 14  1  0  0  0  0
 15 14  2  0  0  0  0
 14 23  1  0  0  0  0
 16 15  1  0  0  0  0
 17 16  2  0  0  0  0
 17 18  1  0  0  0  0
 19 17  1  0  0  0  0
 19 20  1  0  0  0  0
 23 19  2  0  0  0  0
 20 21  1  0  0  0  0
 21 22  2  0  0  0  0
 25 24  2  0  0  0  0
M  END
> <Inchi_key>
BPZSYCZIITTYBL-UHFFFAOYSA-N

> <Source>
Mulliner

> <ID>
HT0178

> <H_MFHB>
0

> <CAS>


> <Cholestasis>


> <Name>
arformoterol tartrate;formoterol fumarate;formoterol;arformoterol

> <Class>
0


$$$$