
  -INDIGO-08031710012D

 36 40  0  0  0  0  0  0  0  0999 V2000
   -0.1738   -7.5320    0.0000 C   0  0  0  0  0  0  0  0  0  0  0  0
    0.5763   -6.2329    0.0000 C   0  0  0  0  0  0  0  0  0  0  0  0
    2.0764   -6.2329    0.0000 O   0  0  0  0  0  0  0  0  0  0  0  0
    2.8262   -4.9339    0.0000 C   0  0  0  0  0  0  0  0  0  0  0  0
    2.0764   -3.6349    0.0000 C   0  0  0  0  0  0  0  0  0  0  0  0
    0.5763   -3.6349    0.0000 C   0  0  0  0  0  0  0  0  0  0  0  0
   -0.1738   -2.3359    0.0000 N   0  0  0  0  0  0  0  0  0  0  0  0
   -0.1738   -4.9339    0.0000 C   0  0  0  0  0  0  0  0  0  0  0  0
   -1.6737   -4.9339    0.0000 O   0  0  0  0  0  0  0  0  0  0  0  0
    4.3264   -4.9339    0.0000 O   0  0  0  0  0  0  0  0  0  0  0  0
    5.0762   -3.6349    0.0000 C   0  0  0  0  0  0  0  0  0  0  0  0
    4.3264   -2.3359    0.0000 C   0  0  0  0  0  0  0  0  0  0  0  0
    5.0762   -1.0368    0.0000 C   0  0  0  0  0  0  0  0  0  0  0  0
    3.7772   -0.2868    0.0000 O   0  0  0  0  0  0  0  0  0  0  0  0
    6.5763   -1.0368    0.0000 C   0  0  0  0  0  0  0  0  0  0  0  0
    7.3264   -2.3359    0.0000 C   0  0  0  0  0  0  0  0  0  0  0  0
    8.8263   -2.3359    0.0000 C   0  0  0  0  0  0  0  0  0  0  0  0
    9.5764   -1.0368    0.0000 O   0  0  0  0  0  0  0  0  0  0  0  0
    9.5764   -3.6349    0.0000 C   0  0  0  0  0  0  0  0  0  0  0  0
   11.0763   -3.6349    0.0000 C   0  0  0  0  0  0  0  0  0  0  0  0
   11.8263   -2.3359    0.0000 O   0  0  0  0  0  0  0  0  0  0  0  0
   11.8263   -4.9339    0.0000 C   0  0  0  0  0  0  0  0  0  0  0  0
   13.3262   -4.9339    0.0000 C   0  0  0  0  0  0  0  0  0  0  0  0
   14.0763   -6.2329    0.0000 C   0  0  0  0  0  0  0  0  0  0  0  0
   13.3262   -7.5320    0.0000 C   0  0  0  0  0  0  0  0  0  0  0  0
   11.8263   -7.5320    0.0000 C   0  0  0  0  0  0  0  0  0  0  0  0
   11.0763   -6.2329    0.0000 C   0  0  0  0  0  0  0  0  0  0  0  0
    9.5764   -6.2329    0.0000 C   0  0  0  0  0  0  0  0  0  0  0  0
    8.8263   -7.5320    0.0000 O   0  0  0  0  0  0  0  0  0  0  0  0
    8.8263   -4.9339    0.0000 C   0  0  0  0  0  0  0  0  0  0  0  0
    7.3264   -4.9339    0.0000 C   0  0  0  0  0  0  0  0  0  0  0  0
    6.5763   -6.2329    0.0000 O   0  0  0  0  0  0  0  0  0  0  0  0
    6.5763   -3.6349    0.0000 C   0  0  0  0  0  0  0  0  0  0  0  0
    5.0762    0.4632    0.0000 C   0  0  0  0  0  0  0  0  0  0  0  0
    3.7772    1.2132    0.0000 O   0  0  0  0  0  0  0  0  0  0  0  0
    6.3754    1.2132    0.0000 C   0  0  0  0  0  0  0  0  0  0  0  0
  1  2  1  0  0  0  0
  3  2  1  0  0  0  0
  2  8  1  0  0  0  0
  4  3  1  0  0  0  0
  5  4  1  0  0  0  0
  4 10  1  0  0  0  0
  6  5  1  0  0  0  0
  6  7  1  0  0  0  0
  8  6  1  0  0  0  0
  8  9  1  0  0  0  0
 10 11  1  0  0  0  0
 12 11  1  0  0  0  0
 11 33  1  0  0  0  0
 13 12  1  0  0  0  0
 13 14  1  0  0  0  0
 15 13  1  0  0  0  0
 13 34  1  0  0  0  0
 16 15  1  0  0  0  0
 17 16  2  0  0  0  0
 16 33  1  0  0  0  0
 17 18  1  0  0  0  0
 19 17  1  0  0  0  0
 20 19  1  0  0  0  0
 19 30  2  0  0  0  0
 20 21  2  0  0  0  0
 22 20  1  0  0  0  0
 23 22  2  0  0  0  0
 22 27  1  0  0  0  0
 24 23  1  0  0  0  0
 25 24  2  0  0  0  0
 26 25  1  0  0  0  0
 27 26  2  0  0  0  0
 28 27  1  0  0  0  0
 28 29  2  0  0  0  0
 30 28  1  0  0  0  0
 31 30  1  0  0  0  0
 31 32  1  0  0  0  0
 33 31  2  0  0  0  0
 34 35  2  0  0  0  0
 34 36  1  0  0  0  0
M  END
> <Inchi_key>
XDXDZDZNSLXDNA-UHFFFAOYSA-N

> <Source>
Mulliner , Kotsampasakou

> <ID>
EK0266;HT1074

> <H_MFHB>
0

> <CAS>


> <Cholestasis>
0

> <Name>
idarubicin hydrochloride;idarubicin

> <Class>
0

$$$$