
  -INDIGO-08031710012D

 26 28  0  0  0  0  0  0  0  0999 V2000
   12.1345   -4.4108    0.0000 C   0  0  0  0  0  0  0  0  0  0  0  0
   11.3845   -5.7099    0.0000 C   0  0  0  0  0  0  0  0  0  0  0  0
    9.8844   -5.7099    0.0000 N   0  0  0  0  0  0  0  0  0  0  0  0
   10.6344   -7.0089    0.0000 C   0  0  0  0  0  0  0  0  0  0  0  0
    9.8844   -4.2099    0.0000 C   0  0  0  0  0  0  0  0  0  0  0  0
    8.5856   -3.4599    0.0000 C   0  0  0  0  0  0  0  0  0  0  0  0
    7.2865   -4.2099    0.0000 C   0  0  0  0  0  0  0  0  0  0  0  0
    7.2865   -5.7099    0.0000 C   0  0  0  0  0  0  0  0  0  0  0  0
    8.5856   -6.4599    0.0000 C   0  0  0  0  0  0  0  0  0  0  0  0
    5.9875   -6.4599    0.0000 O   0  0  0  0  0  0  0  0  0  0  0  0
    4.6884   -5.7099    0.0000 C   0  0  0  0  0  0  0  0  0  0  0  0
    4.6884   -4.2099    0.0000 O   0  0  0  0  0  0  0  0  0  0  0  0
    3.3894   -6.4599    0.0000 C   0  0  0  0  0  0  0  0  0  0  0  0
    4.1394   -7.7589    0.0000 O   0  0  0  0  0  0  0  0  0  0  0  0
    2.0903   -7.2099    0.0000 C   0  0  0  0  0  0  0  0  0  0  0  0
    2.0903   -8.7099    0.0000 C   0  0  0  0  0  0  0  0  0  0  0  0
    0.7912   -9.4599    0.0000 C   0  0  0  0  0  0  0  0  0  0  0  0
   -0.5078   -8.7099    0.0000 C   0  0  0  0  0  0  0  0  0  0  0  0
   -0.5078   -7.2099    0.0000 C   0  0  0  0  0  0  0  0  0  0  0  0
    0.7912   -6.4599    0.0000 C   0  0  0  0  0  0  0  0  0  0  0  0
    2.6393   -5.1608    0.0000 C   0  0  0  0  0  0  0  0  0  0  0  0
    1.1393   -5.1608    0.0000 C   0  0  0  0  0  0  0  0  0  0  0  0
    0.3892   -3.8618    0.0000 C   0  0  0  0  0  0  0  0  0  0  0  0
    1.1393   -2.5628    0.0000 C   0  0  0  0  0  0  0  0  0  0  0  0
    2.6393   -2.5628    0.0000 C   0  0  0  0  0  0  0  0  0  0  0  0
    3.3894   -3.8618    0.0000 C   0  0  0  0  0  0  0  0  0  0  0  0
  1  2  1  0  0  0  0
  2  3  1  0  0  0  0
  3  4  1  0  0  0  0
  5  3  1  0  0  0  0
  3  9  1  0  0  0  0
  6  5  1  0  0  0  0
  7  6  1  0  0  0  0
  8  7  1  0  0  0  0
  9  8  1  0  0  0  0
  8 10  1  0  0  0  0
 10 11  1  0  0  0  0
 11 12  2  0  0  0  0
 11 13  1  0  0  0  0
 13 14  1  0  0  0  0
 13 15  1  0  0  0  0
 13 21  1  0  0  0  0
 16 15  2  0  0  0  0
 15 20  1  0  0  0  0
 17 16  1  0  0  0  0
 18 17  2  0  0  0  0
 19 18  1  0  0  0  0
 20 19  2  0  0  0  0
 22 21  2  0  0  0  0
 21 26  1  0  0  0  0
 23 22  1  0  0  0  0
 24 23  2  0  0  0  0
 25 24  1  0  0  0  0
 26 25  2  0  0  0  0
M  CHG  1   3   1
M  END
> <Inchi_key>
WPUKUEMZZRVAKZ-UHFFFAOYSA-N

> <Source>
Mulliner

> <ID>
HT3614

> <H_MFHB>
0

> <CAS>


> <Cholestasis>


> <Name>


> <Class>
0

$$$$