
  -INDIGO-08031710012D

 12 12  0  0  0  0  0  0  0  0999 V2000
    9.6671    1.0903    0.0000 C   0  0  0  0  0  0  0  0  0  0  0  0
    8.3681    1.8403    0.0000 C   0  0  0  0  0  0  0  0  0  0  0  0
    7.0691    1.0903    0.0000 C   0  0  0  0  0  0  0  0  0  0  0  0
    5.7699    1.8403    0.0000 C   0  0  0  0  0  0  0  0  0  0  0  0
    4.4711    1.0903    0.0000 C   0  0  0  0  0  0  0  0  0  0  0  0
    3.1721    1.8403    0.0000 C   0  0  0  0  0  0  0  0  0  0  0  0
    3.1721    3.3403    0.0000 C   0  0  0  0  0  0  0  0  0  0  0  0
    4.4711    4.0903    0.0000 C   0  0  0  0  0  0  0  0  0  0  0  0
    5.7699    3.3403    0.0000 N   0  0  0  0  0  0  0  0  0  0  0  0
    1.8729    1.0903    0.0000 C   0  0  0  0  0  0  0  0  0  0  0  0
    0.5739    1.8403    0.0000 S   0  0  0  0  0  0  0  0  0  0  0  0
    1.8729   -0.4097    0.0000 N   0  0  0  0  0  0  0  0  0  0  0  0
  1  2  1  0  0  0  0
  2  3  1  0  0  0  0
  3  4  1  0  0  0  0
  5  4  2  0  0  0  0
  4  9  1  0  0  0  0
  6  5  1  0  0  0  0
  7  6  2  0  0  0  0
  6 10  1  0  0  0  0
  8  7  1  0  0  0  0
  9  8  2  0  0  0  0
 10 11  2  0  0  0  0
 10 12  1  0  0  0  0
M  END
> <Inchi_key>
VRDIULHPQTYCLN-UHFFFAOYSA-N

> <Source>
Mulliner

> <ID>
HT1769

> <H_MFHB>
0

> <CAS>


> <Cholestasis>


> <Name>
protionamide

> <Class>
0

$$$$