
  -INDIGO-08031710012D

 40 39  0  0  0  0  0  0  0  0999 V2000
   -3.2062   11.9659    0.0000 C   0  0  0  0  0  0  0  0  0  0  0  0
   -1.9075   12.7159    0.0000 C   0  0  0  0  0  0  0  0  0  0  0  0
   -0.6079   11.9659    0.0000 C   0  0  0  0  0  0  0  0  0  0  0  0
    0.6908   12.7159    0.0000 C   0  0  0  0  0  0  0  0  0  0  0  0
    1.9895   11.9659    0.0000 C   0  0  0  0  0  0  0  0  0  0  0  0
    3.2890   12.7159    0.0000 C   0  0  0  0  0  0  0  0  0  0  0  0
    4.5878   11.9659    0.0000 C   0  0  0  0  0  0  0  0  0  0  0  0
    5.8873   12.7159    0.0000 C   0  0  0  0  0  0  0  0  0  0  0  0
    7.1860   11.9659    0.0000 C   0  0  0  0  0  0  0  0  0  0  0  0
    8.4848   12.7159    0.0000 C   0  0  0  0  0  0  0  0  0  0  0  0
    9.7843   11.9659    0.0000 C   0  0  0  0  0  0  0  0  0  0  0  0
   11.0830   12.7159    0.0000 C   0  0  0  0  0  0  0  0  0  0  0  0
   12.3825   11.9659    0.0000 O   0  0  0  0  0  0  0  0  0  0  0  0
   13.6813   12.7159    0.0000 C   0  0  0  0  0  0  0  0  0  0  0  0
   14.9800   11.9659    0.0000 C   0  0  0  0  0  0  0  0  0  0  0  0
   16.2795   12.7159    0.0000 O   0  0  0  0  0  0  0  0  0  0  0  0
   17.5783   11.9659    0.0000 C   0  0  0  0  0  0  0  0  0  0  0  0
   18.8778   12.7159    0.0000 C   0  0  0  0  0  0  0  0  0  0  0  0
   20.1765   11.9659    0.0000 O   0  0  0  0  0  0  0  0  0  0  0  0
   21.4752   12.7159    0.0000 C   0  0  0  0  0  0  0  0  0  0  0  0
   22.7748   11.9659    0.0000 C   0  0  0  0  0  0  0  0  0  0  0  0
   24.0735   12.7159    0.0000 O   0  0  0  0  0  0  0  0  0  0  0  0
   25.3722   11.9659    0.0000 C   0  0  0  0  0  0  0  0  0  0  0  0
   26.6717   12.7159    0.0000 C   0  0  0  0  0  0  0  0  0  0  0  0
   27.9705   11.9659    0.0000 O   0  0  0  0  0  0  0  0  0  0  0  0
   29.2700   12.7159    0.0000 C   0  0  0  0  0  0  0  0  0  0  0  0
   30.5687   11.9659    0.0000 C   0  0  0  0  0  0  0  0  0  0  0  0
   31.8675   12.7159    0.0000 O   0  0  0  0  0  0  0  0  0  0  0  0
   33.1670   11.9659    0.0000 C   0  0  0  0  0  0  0  0  0  0  0  0
   34.4657   12.7159    0.0000 C   0  0  0  0  0  0  0  0  0  0  0  0
   35.7652   11.9659    0.0000 O   0  0  0  0  0  0  0  0  0  0  0  0
   37.0640   12.7159    0.0000 C   0  0  0  0  0  0  0  0  0  0  0  0
   38.3627   11.9659    0.0000 C   0  0  0  0  0  0  0  0  0  0  0  0
   39.6622   12.7159    0.0000 O   0  0  0  0  0  0  0  0  0  0  0  0
   40.9610   11.9659    0.0000 C   0  0  0  0  0  0  0  0  0  0  0  0
   42.2605   12.7159    0.0000 C   0  0  0  0  0  0  0  0  0  0  0  0
   43.5592   11.9659    0.0000 O   0  0  0  0  0  0  0  0  0  0  0  0
   44.8579   12.7159    0.0000 C   0  0  0  0  0  0  0  0  0  0  0  0
   46.1575   11.9659    0.0000 C   0  0  0  0  0  0  0  0  0  0  0  0
   47.4562   12.7159    0.0000 O   0  0  0  0  0  0  0  0  0  0  0  0
  1  2  1  0  0  0  0
  2  3  1  0  0  0  0
  3  4  1  0  0  0  0
  4  5  1  0  0  0  0
  5  6  1  0  0  0  0
  6  7  1  0  0  0  0
  7  8  1  0  0  0  0
  8  9  1  0  0  0  0
  9 10  1  0  0  0  0
 10 11  1  0  0  0  0
 11 12  1  0  0  0  0
 12 13  1  0  0  0  0
 13 14  1  0  0  0  0
 14 15  1  0  0  0  0
 15 16  1  0  0  0  0
 16 17  1  0  0  0  0
 17 18  1  0  0  0  0
 18 19  1  0  0  0  0
 19 20  1  0  0  0  0
 20 21  1  0  0  0  0
 21 22  1  0  0  0  0
 22 23  1  0  0  0  0
 23 24  1  0  0  0  0
 24 25  1  0  0  0  0
 25 26  1  0  0  0  0
 26 27  1  0  0  0  0
 27 28  1  0  0  0  0
 28 29  1  0  0  0  0
 29 30  1  0  0  0  0
 30 31  1  0  0  0  0
 31 32  1  0  0  0  0
 32 33  1  0  0  0  0
 33 34  1  0  0  0  0
 34 35  1  0  0  0  0
 35 36  1  0  0  0  0
 36 37  1  0  0  0  0
 37 38  1  0  0  0  0
 38 39  1  0  0  0  0
 39 40  1  0  0  0  0
M  END
> <Inchi_key>
ONJQDTZCDSESIW-UHFFFAOYSA-N

> <Source>
Mulliner

> <ID>
HT1705

> <H_MFHB>
0

> <CAS>


> <Cholestasis>


> <Name>
polidocanol

> <Class>
0

$$$$