

  -INDIGO-08031710012D

 34 37  0  0  0  0  0  0  0  0999 V2000
    0.4525   -5.6453    0.0000 C   0  0  0  0  0  0  0  0  0  0  0  0
    1.9334   -5.4064    0.0000 C   0  0  0  0  0  0  0  0  0  0  0  0
    2.8805   -6.5694    0.0000 O   0  0  0  0  0  0  0  0  0  0  0  0
    2.4668   -4.0045    0.0000 O   0  0  0  0  0  0  0  0  0  0  0  0
    3.9477   -3.7656    0.0000 C   0  0  0  0  0  0  0  0  0  0  0  0
    4.4811   -2.3637    0.0000 C   0  0  0  0  0  0  0  0  0  0  0  0
    3.5339   -1.2006    0.0000 O   0  0  0  0  0  0  0  0  0  0  0  0
    5.9622   -2.1248    0.0000 C   0  0  0  0  0  0  0  0  0  0  0  0
    5.4778   -3.5445    0.0000 O   0  0  0  0  0  0  0  0  0  0  0  0
    5.8010   -0.6335    0.0000 C   0  0  0  0  0  0  0  0  0  0  0  0
    7.1695   -0.0194    0.0000 C   0  0  0  0  0  0  0  0  0  0  0  0
    8.1764   -1.1314    0.0000 C   0  0  0  0  0  0  0  0  0  0  0  0
    9.6763   -1.1270    0.0000 C   0  0  0  0  0  0  0  0  0  0  0  0
   10.4228    0.1742    0.0000 C   0  0  0  0  0  0  0  0  0  0  0  0
   11.9227    0.1784    0.0000 C   0  0  0  0  0  0  0  0  0  0  0  0
   12.6765   -1.1183    0.0000 C   0  0  0  0  0  0  0  0  0  0  0  0
   14.1764   -1.1140    0.0000 C   0  0  0  0  0  0  0  0  0  0  0  0
   14.9300   -2.4109    0.0000 C   0  0  0  0  0  0  0  0  0  0  0  0
   16.4301   -2.4065    0.0000 O   0  0  0  0  0  0  0  0  0  0  0  0
   14.1839   -3.7121    0.0000 C   0  0  0  0  0  0  0  0  0  0  0  0
   12.6838   -3.7163    0.0000 C   0  0  0  0  0  0  0  0  0  0  0  0
   11.9302   -2.4195    0.0000 C   0  0  0  0  0  0  0  0  0  0  0  0
   11.1840   -3.7207    0.0000 C   0  0  0  0  0  0  0  0  0  0  0  0
   10.4301   -2.4239    0.0000 C   0  0  0  0  0  0  0  0  0  0  0  0
    8.9302   -2.4281    0.0000 F   0  0  0  0  0  0  0  0  0  0  0  0
    9.6838   -3.7249    0.0000 C   0  0  0  0  0  0  0  0  0  0  0  0
   10.4377   -5.0219    0.0000 O   0  0  0  0  0  0  0  0  0  0  0  0
    8.1840   -3.7293    0.0000 C   0  0  0  0  0  0  0  0  0  0  0  0
    7.4301   -2.4324    0.0000 C   0  0  0  0  0  0  0  0  0  0  0  0
    6.5734   -3.6636    0.0000 C   0  0  0  0  0  0  0  0  0  0  0  0
    4.4999    0.1129    0.0000 O   0  0  0  0  0  0  0  0  0  0  0  0
    4.4955    1.6127    0.0000 C   0  0  0  0  0  0  0  0  0  0  0  0
    3.1943    2.3591    0.0000 O   0  0  0  0  0  0  0  0  0  0  0  0
    5.7925    2.3665    0.0000 C   0  0  0  0  0  0  0  0  0  0  0  0
  1  2  1  0  0  0  0
  2  3  2  0  0  0  0
  2  4  1  0  0  0  0
  4  5  1  0  0  0  0
  5  6  1  0  0  0  0
  6  7  2  0  0  0  0
  6  8  1  0  0  0  0
  8  9  1  0  0  0  0
 10  8  1  0  0  0  0
  8 29  1  0  0  0  0
 11 10  1  0  0  0  0
 10 31  1  0  0  0  0
 12 11  1  0  0  0  0
 13 12  1  0  0  0  0
 12 29  1  0  0  0  0
 14 13  1  0  0  0  0
 13 24  1  0  0  0  0
 15 14  1  0  0  0  0
 16 15  1  0  0  0  0
 17 16  2  0  0  0  0
 16 22  1  0  0  0  0
 18 17  1  0  0  0  0
 18 19  2  0  0  0  0
 20 18  1  0  0  0  0
 21 20  2  0  0  0  0
 22 21  1  0  0  0  0
 22 23  1  0  0  0  0
 24 22  1  0  0  0  0
 24 25  1  0  0  0  0
 26 24  1  0  0  0  0
 26 27  1  0  0  0  0
 28 26  1  0  0  0  0
 29 28  1  0  0  0  0
 29 30  1  0  0  0  0
 31 32  1  0  0  0  0
 32 33  2  0  0  0  0
 32 34  1  0  0  0  0
M  END
> <Inchi_key>
XGMPVBXKDAHORN-UHFFFAOYSA-N

> <Source>
Mulliner

> <ID>
HT2107

> <H_MFHB>
0

> <CAS>


> <Cholestasis>


> <Name>
triamcinolone diacetate

> <Class>
0


$$$$