

  -INDIGO-08031710012D

 32 35  0  0  0  0  0  0  0  0999 V2000
    0.4204    0.1956    0.0000 C   0  0  0  0  0  0  0  0  0  0  0  0
   -0.5457   -0.9516    0.0000 C   0  0  0  0  0  0  0  0  0  0  0  0
   -0.0355   -2.3622    0.0000 C   0  0  0  0  0  0  0  0  0  0  0  0
    1.4413   -2.6254    0.0000 O   0  0  0  0  0  0  0  0  0  0  0  0
   -1.0018   -3.5094    0.0000 O   0  0  0  0  0  0  0  0  0  0  0  0
   -0.4914   -4.9199    0.0000 C   0  0  0  0  0  0  0  0  0  0  0  0
   -0.6250   -6.4139    0.0000 C   0  0  0  0  0  0  0  0  0  0  0  0
   -1.9123   -7.1841    0.0000 C   0  0  0  0  0  0  0  0  0  0  0  0
    0.7547   -7.0026    0.0000 C   0  0  0  0  0  0  0  0  0  0  0  0
    1.7410   -5.8725    0.0000 C   0  0  0  0  0  0  0  0  0  0  0  0
    3.2407   -5.8491    0.0000 C   0  0  0  0  0  0  0  0  0  0  0  0
    4.0110   -7.1364    0.0000 C   0  0  0  0  0  0  0  0  0  0  0  0
    5.5107   -7.1129    0.0000 C   0  0  0  0  0  0  0  0  0  0  0  0
    6.2405   -5.8024    0.0000 C   0  0  0  0  0  0  0  0  0  0  0  0
    7.7402   -5.7790    0.0000 C   0  0  0  0  0  0  0  0  0  0  0  0
    8.4699   -4.4684    0.0000 C   0  0  0  0  0  0  0  0  0  0  0  0
    9.9697   -4.4450    0.0000 O   0  0  0  0  0  0  0  0  0  0  0  0
    7.6997   -3.1811    0.0000 C   0  0  0  0  0  0  0  0  0  0  0  0
    6.1999   -3.2046    0.0000 C   0  0  0  0  0  0  0  0  0  0  0  0
    5.4702   -4.5152    0.0000 C   0  0  0  0  0  0  0  0  0  0  0  0
    4.7002   -3.2280    0.0000 C   0  0  0  0  0  0  0  0  0  0  0  0
    3.9704   -4.5385    0.0000 C   0  0  0  0  0  0  0  0  0  0  0  0
    2.4707   -4.5619    0.0000 F   0  0  0  0  0  0  0  0  0  0  0  0
    3.2002   -3.2513    0.0000 C   0  0  0  0  0  0  0  0  0  0  0  0
    3.9299   -1.9407    0.0000 O   0  0  0  0  0  0  0  0  0  0  0  0
    1.7004   -3.2747    0.0000 C   0  0  0  0  0  0  0  0  0  0  0  0
    0.9707   -4.5852    0.0000 C   0  0  0  0  0  0  0  0  0  0  0  0
    0.0914   -3.3700    0.0000 C   0  0  0  0  0  0  0  0  0  0  0  0
   -1.9764   -4.7083    0.0000 C   0  0  0  0  0  0  0  0  0  0  0  0
   -2.5357   -3.3165    0.0000 O   0  0  0  0  0  0  0  0  0  0  0  0
   -2.9020   -5.8886    0.0000 C   0  0  0  0  0  0  0  0  0  0  0  0
   -4.3871   -5.6771    0.0000 Cl  0  0  0  0  0  0  0  0  0  0  0  0
  1  2  1  0  0  0  0
  2  3  1  0  0  0  0
  3  4  2  0  0  0  0
  3  5  1  0  0  0  0
  5  6  1  0  0  0  0
  7  6  1  0  0  0  0
  6 27  1  0  0  0  0
  6 29  1  0  0  0  0
  7  8  1  0  0  0  0
  9  7  1  0  0  0  0
 10  9  1  0  0  0  0
 11 10  1  0  0  0  0
 10 27  1  0  0  0  0
 12 11  1  0  0  0  0
 11 22  1  0  0  0  0
 13 12  1  0  0  0  0
 14 13  1  0  0  0  0
 15 14  2  0  0  0  0
 14 20  1  0  0  0  0
 16 15  1  0  0  0  0
 16 17  2  0  0  0  0
 18 16  1  0  0  0  0
 19 18  2  0  0  0  0
 20 19  1  0  0  0  0
 20 21  1  0  0  0  0
 22 20  1  0  0  0  0
 22 23  1  0  0  0  0
 24 22  1  0  0  0  0
 24 25  1  0  0  0  0
 26 24  1  0  0  0  0
 27 26  1  0  0  0  0
 27 28  1  0  0  0  0
 29 30  2  0  0  0  0
 29 31  1  0  0  0  0
 31 32  1  0  0  0  0
M  END
> <Inchi_key>
CBGUOGMQLZIXBE-UHFFFAOYSA-N

> <Source>
Mulliner

> <ID>
HT0517

> <H_MFHB>
0

> <CAS>


> <Cholestasis>


> <Name>
clobetasol propionate

> <Class>
0


$$$$