
  -INDIGO-08031710012D

 24 27  0  0  0  0  0  0  0  0999 V2000
   -3.9138   -9.2668    0.0000 C   0  0  0  0  0  0  0  0  0  0  0  0
   -4.6639   -7.9678    0.0000 C   0  0  0  0  0  0  0  0  0  0  0  0
   -6.1637   -7.9678    0.0000 C   0  0  0  0  0  0  0  0  0  0  0  0
   -6.9138   -6.6687    0.0000 C   0  0  0  0  0  0  0  0  0  0  0  0
   -6.1637   -5.3697    0.0000 C   0  0  0  0  0  0  0  0  0  0  0  0
   -4.6639   -5.3697    0.0000 C   0  0  0  0  0  0  0  0  0  0  0  0
   -3.9138   -6.6687    0.0000 C   0  0  0  0  0  0  0  0  0  0  0  0
   -2.4137   -6.6687    0.0000 N   0  0  0  0  0  0  0  0  0  0  0  0
   -1.6639   -5.3697    0.0000 C   0  0  0  0  0  0  0  0  0  0  0  0
   -0.1638   -5.3697    0.0000 C   0  0  0  0  0  0  0  0  0  0  0  0
    0.5863   -6.6687    0.0000 N   0  0  0  0  0  0  0  0  0  0  0  0
    2.0861   -6.6687    0.0000 C   0  0  0  0  0  0  0  0  0  0  0  0
    2.8362   -5.3697    0.0000 C   0  0  0  0  0  0  0  0  0  0  0  0
    4.3363   -5.3697    0.0000 C   0  0  0  0  0  0  0  0  0  0  0  0
    5.2178   -6.5832    0.0000 N   0  0  0  0  0  0  0  0  0  0  0  0
    6.6444   -6.1197    0.0000 N   0  0  0  0  0  0  0  0  0  0  0  0
    6.6444   -4.6197    0.0000 C   0  0  0  0  0  0  0  0  0  0  0  0
    7.7592   -3.6160    0.0000 C   0  0  0  0  0  0  0  0  0  0  0  0
    7.4473   -2.1489    0.0000 C   0  0  0  0  0  0  0  0  0  0  0  0
    6.0207   -1.6853    0.0000 C   0  0  0  0  0  0  0  0  0  0  0  0
    4.9061   -2.6890    0.0000 C   0  0  0  0  0  0  0  0  0  0  0  0
    5.2178   -4.1562    0.0000 N   0  0  0  0  0  0  0  0  0  0  0  0
   -0.1638   -7.9678    0.0000 C   0  0  0  0  0  0  0  0  0  0  0  0
   -1.6639   -7.9678    0.0000 C   0  0  0  0  0  0  0  0  0  0  0  0
  1  2  1  0  0  0  0
  3  2  2  0  0  0  0
  2  7  1  0  0  0  0
  4  3  1  0  0  0  0
  5  4  2  0  0  0  0
  6  5  1  0  0  0  0
  7  6  2  0  0  0  0
  7  8  1  0  0  0  0
  9  8  1  0  0  0  0
  8 24  1  0  0  0  0
 10  9  1  0  0  0  0
 11 10  1  0  0  0  0
 11 12  1  0  0  0  0
 23 11  1  0  0  0  0
 12 13  1  0  0  0  0
 13 14  1  0  0  0  0
 15 14  2  0  0  0  0
 14 22  1  0  0  0  0
 16 15  1  0  0  0  0
 17 16  2  0  0  0  0
 18 17  1  0  0  0  0
 17 22  1  0  0  0  0
 19 18  1  0  0  0  0
 20 19  1  0  0  0  0
 21 20  1  0  0  0  0
 22 21  1  0  0  0  0
 24 23  1  0  0  0  0
M  END
> <Inchi_key>
RFWZESUMWJKKRN-UHFFFAOYSA-N

> <Source>
Mulliner , Kotsampasakou

> <ID>
EK0146;HT0590

> <H_MFHB>
0

> <CAS>


> <Cholestasis>
0

> <Name>
dapiprazole;dapiprazole hydrochloride

> <Class>
0

$$$$