

  -INDIGO-08031710012D

 13 12  0  0  0  0  0  0  0  0999 V2000
    2.5487    0.6625    0.0000 C   0  0  0  0  0  0  0  0  0  0  0  0
    3.2987    1.9615    0.0000 C   0  0  0  0  0  0  0  0  0  0  0  0
    4.5977    1.2115    0.0000 C   0  0  0  0  0  0  0  0  0  0  0  0
    4.0487    3.2606    0.0000 S   0  0  0  0  0  0  0  0  0  0  0  0
    1.9996    2.7115    0.0000 C   0  0  0  0  0  0  0  0  0  0  0  0
    1.9996    4.2115    0.0000 O   0  0  0  0  0  0  0  0  0  0  0  0
    0.7007    1.9615    0.0000 N   0  0  0  0  0  0  0  0  0  0  0  0
   -0.5984    2.7115    0.0000 C   0  0  0  0  0  0  0  0  0  0  0  0
   -0.5984    4.2115    0.0000 C   0  0  0  0  0  0  0  0  0  0  0  0
   -1.8975    4.9615    0.0000 S   0  0  0  0  0  0  0  0  0  0  0  0
   -1.8975    1.9615    0.0000 C   0  0  0  0  0  0  0  0  0  0  0  0
   -3.1965    2.7115    0.0000 O   0  0  0  0  0  0  0  0  0  0  0  0
   -1.8975    0.4615    0.0000 O   0  0  0  0  0  0  0  0  0  0  0  0
  1  2  1  0  0  0  0
  2  3  1  0  0  0  0
  2  4  1  0  0  0  0
  2  5  1  0  0  0  0
  5  6  2  0  0  0  0
  5  7  1  0  0  0  0
  7  8  1  0  0  0  0
  8  9  1  0  0  0  0
  8 11  1  0  0  0  0
  9 10  1  0  0  0  0
 11 12  2  0  0  0  0
 11 13  1  0  0  0  0
M  END
> <Inchi_key>
VUAFHZCUKUDDBC-UHFFFAOYSA-N

> <Source>
Mulliner

> <ID>
HT0320

> <H_MFHB>
0

> <CAS>
65002-17-7

> <Cholestasis>


> <Name>
bucillamine

> <Class>
0


$$$$