
  -INDIGO-08031710012D

 31 32  0  0  0  0  0  0  0  0999 V2000
    1.8438    0.4940    0.0000 C   0  0  0  0  0  0  0  0  0  0  0  0
    3.1429    1.2440    0.0000 C   0  0  0  0  0  0  0  0  0  0  0  0
    3.1429    2.7440    0.0000 N   0  0  0  0  0  0  0  0  0  0  0  0
    1.8438    3.4940    0.0000 C   0  0  0  0  0  0  0  0  0  0  0  0
    0.5448    2.7440    0.0000 C   0  0  0  0  0  0  0  0  0  0  0  0
   -0.7543    3.4940    0.0000 C   0  0  0  0  0  0  0  0  0  0  0  0
   -2.0533    2.7440    0.0000 C   0  0  0  0  0  0  0  0  0  0  0  0
   -3.3523    3.4940    0.0000 O   0  0  0  0  0  0  0  0  0  0  0  0
   -4.6514    2.7440    0.0000 C   0  0  0  0  0  0  0  0  0  0  0  0
   -4.6514    1.2440    0.0000 O   0  0  0  0  0  0  0  0  0  0  0  0
   -5.9504    3.4940    0.0000 C   0  0  0  0  0  0  0  0  0  0  0  0
   -5.9504    4.9940    0.0000 C   0  0  0  0  0  0  0  0  0  0  0  0
   -7.2494    5.7440    0.0000 C   0  0  0  0  0  0  0  0  0  0  0  0
   -8.5485    4.9940    0.0000 C   0  0  0  0  0  0  0  0  0  0  0  0
   -9.8475    5.7440    0.0000 O   0  0  0  0  0  0  0  0  0  0  0  0
   -9.8475    7.2440    0.0000 C   0  0  0  0  0  0  0  0  0  0  0  0
   -8.5485    3.4940    0.0000 C   0  0  0  0  0  0  0  0  0  0  0  0
   -9.8475    2.7440    0.0000 O   0  0  0  0  0  0  0  0  0  0  0  0
   -9.8475    1.2440    0.0000 C   0  0  0  0  0  0  0  0  0  0  0  0
   -7.2494    2.7440    0.0000 C   0  0  0  0  0  0  0  0  0  0  0  0
    4.4419    3.4940    0.0000 C   0  0  0  0  0  0  0  0  0  0  0  0
    4.4419    4.9940    0.0000 C   0  0  0  0  0  0  0  0  0  0  0  0
    5.7409    2.7440    0.0000 C   0  0  0  0  0  0  0  0  0  0  0  0
    7.0400    3.4940    0.0000 C   0  0  0  0  0  0  0  0  0  0  0  0
    8.3390    2.7440    0.0000 C   0  0  0  0  0  0  0  0  0  0  0  0
    9.6380    3.4940    0.0000 C   0  0  0  0  0  0  0  0  0  0  0  0
    9.6380    4.9940    0.0000 C   0  0  0  0  0  0  0  0  0  0  0  0
   10.9371    5.7440    0.0000 O   0  0  0  0  0  0  0  0  0  0  0  0
   12.2361    4.9940    0.0000 C   0  0  0  0  0  0  0  0  0  0  0  0
    8.3390    5.7440    0.0000 C   0  0  0  0  0  0  0  0  0  0  0  0
    7.0400    4.9940    0.0000 C   0  0  0  0  0  0  0  0  0  0  0  0
  1  2  1  0  0  0  0
  2  3  1  0  0  0  0
  3  4  1  0  0  0  0
  3 21  1  0  0  0  0
  4  5  1  0  0  0  0
  5  6  1  0  0  0  0
  6  7  1  0  0  0  0
  7  8  1  0  0  0  0
  8  9  1  0  0  0  0
  9 10  2  0  0  0  0
  9 11  1  0  0  0  0
 12 11  2  0  0  0  0
 11 20  1  0  0  0  0
 13 12  1  0  0  0  0
 14 13  2  0  0  0  0
 14 15  1  0  0  0  0
 17 14  1  0  0  0  0
 15 16  1  0  0  0  0
 17 18  1  0  0  0  0
 20 17  2  0  0  0  0
 18 19  1  0  0  0  0
 21 22  1  0  0  0  0
 21 23  1  0  0  0  0
 23 24  1  0  0  0  0
 25 24  2  0  0  0  0
 24 31  1  0  0  0  0
 26 25  1  0  0  0  0
 27 26  2  0  0  0  0
 27 28  1  0  0  0  0
 30 27  1  0  0  0  0
 28 29  1  0  0  0  0
 31 30  2  0  0  0  0
M  END
> <Inchi_key>
VYVKHNNGDFVQGA-UHFFFAOYSA-N

> <Source>
Mulliner

> <ID>
HT3815

> <H_MFHB>
0

> <CAS>


> <Cholestasis>


> <Name>


> <Class>
0

$$$$