
  -INDIGO-08031710012D

 19 19  0  0  0  0  0  0  0  0999 V2000
   13.2442   -5.0033    0.0000 C   0  0  0  0  0  0  0  0  0  0  0  0
   11.7457   -5.0689    0.0000 C   0  0  0  0  0  0  0  0  0  0  0  0
   10.9397   -3.8039    0.0000 C   0  0  0  0  0  0  0  0  0  0  0  0
    9.4410   -3.8695    0.0000 C   0  0  0  0  0  0  0  0  0  0  0  0
    8.6350   -2.6045    0.0000 C   0  0  0  0  0  0  0  0  0  0  0  0
    9.3274   -1.2739    0.0000 C   0  0  0  0  0  0  0  0  0  0  0  0
   10.8259   -1.2083    0.0000 C   0  0  0  0  0  0  0  0  0  0  0  0
    7.1363   -2.6701    0.0000 C   0  0  0  0  0  0  0  0  0  0  0  0
    6.3085   -3.9210    0.0000 N   0  0  0  0  0  0  0  0  0  0  0  0
    4.8631   -3.5203    0.0000 C   0  0  0  0  0  0  0  0  0  0  0  0
    3.6892   -4.4542    0.0000 O   0  0  0  0  0  0  0  0  0  0  0  0
    4.7976   -2.0217    0.0000 N   0  0  0  0  0  0  0  0  0  0  0  0
    3.5466   -1.1940    0.0000 S   0  0  0  0  0  0  0  0  0  0  0  0
    2.2043   -1.8634    0.0000 C   0  0  0  0  0  0  0  0  0  0  0  0
    1.5347   -0.5211    0.0000 Cl  0  0  0  0  0  0  0  0  0  0  0  0
    0.8619   -2.5328    0.0000 Cl  0  0  0  0  0  0  0  0  0  0  0  0
    2.8738   -3.2057    0.0000 Cl  0  0  0  0  0  0  0  0  0  0  0  0
    6.2025   -1.4963    0.0000 C   0  0  0  0  0  0  0  0  0  0  0  0
    6.6033   -0.0508    0.0000 O   0  0  0  0  0  0  0  0  0  0  0  0
  1  2  1  0  0  0  0
  2  3  1  0  0  0  0
  3  4  1  0  0  0  0
  4  5  1  0  0  0  0
  5  6  1  0  0  0  0
  5  8  1  0  0  0  0
  6  7  1  0  0  0  0
  9  8  1  0  0  0  0
  8 18  1  0  0  0  0
 10  9  1  0  0  0  0
 10 11  2  0  0  0  0
 12 10  1  0  0  0  0
 12 13  1  0  0  0  0
 18 12  1  0  0  0  0
 13 14  1  0  0  0  0
 14 15  1  0  0  0  0
 14 16  1  0  0  0  0
 14 17  1  0  0  0  0
 18 19  2  0  0  0  0
M  END
> <Inchi_key>
VOGJJBHRUDVEFM-UHFFFAOYSA-N

> <Source>
Mulliner

> <ID>
HT3591

> <H_MFHB>
0

> <CAS>


> <Cholestasis>


> <Name>


> <Class>
0

$$$$