
  -INDIGO-08031710012D

  7  6  0  0  0  0  0  0  0  0999 V2000
    0.3214   -0.5567    0.0000 O   0  0  0  0  0  0  0  0  0  0  0  0
    1.0714    0.7423    0.0000 C   0  0  0  0  0  0  0  0  0  0  0  0
    0.3214    2.0413    0.0000 O   0  0  0  0  0  0  0  0  0  0  0  0
    2.5714    0.7423    0.0000 P   0  0  0  0  0  0  0  0  0  0  0  0
    2.5714    2.2423    0.0000 O   0  0  0  0  0  0  0  0  0  0  0  0
    2.5714   -0.7577    0.0000 O   0  0  0  0  0  0  0  0  0  0  0  0
    4.0714    0.7423    0.0000 O   0  0  0  0  0  0  0  0  0  0  0  0
  1  2  1  0  0  0  0
  2  3  2  0  0  0  0
  2  4  1  0  0  0  0
  4  5  2  0  0  0  0
  4  6  1  0  0  0  0
  4  7  1  0  0  0  0
M  END
> <Inchi_key>
ZJAOAACCNHFJAH-UHFFFAOYSA-N

> <Source>
Mulliner , Kotsampasakou

> <ID>
EK0234;HT0936

> <H_MFHB>
0

> <CAS>
34156-56-4

> <Cholestasis>
0

> <Name>
foscarnet sodium;foscarnet

> <Class>
0

$$$$