
  -INDIGO-08031710012D

 28 31  0  0  0  0  0  0  0  0999 V2000
   -2.4266    4.2240    0.0000 C   0  0  0  0  0  0  0  0  0  0  0  0
   -1.6711    5.5198    0.0000 N   0  0  0  0  0  0  0  0  0  0  0  0
   -0.1710    5.5133    0.0000 C   0  0  0  0  0  0  0  0  0  0  0  0
    0.5734    4.2110    0.0000 O   0  0  0  0  0  0  0  0  0  0  0  0
    0.5845    6.8091    0.0000 C   0  0  0  0  0  0  0  0  0  0  0  0
   -0.1598    8.1113    0.0000 C   0  0  0  0  0  0  0  0  0  0  0  0
    0.5960    9.4071    0.0000 C   0  0  0  0  0  0  0  0  0  0  0  0
    2.0958    9.4006    0.0000 C   0  0  0  0  0  0  0  0  0  0  0  0
    2.8401    8.0984    0.0000 C   0  0  0  0  0  0  0  0  0  0  0  0
    2.0846    6.8026    0.0000 C   0  0  0  0  0  0  0  0  0  0  0  0
    2.8290    5.5003    0.0000 S   0  0  0  0  0  0  0  0  0  0  0  0
    4.3291    5.4938    0.0000 C   0  0  0  0  0  0  0  0  0  0  0  0
    5.0846    6.7896    0.0000 C   0  0  0  0  0  0  0  0  0  0  0  0
    6.5847    6.7831    0.0000 C   0  0  0  0  0  0  0  0  0  0  0  0
    7.3290    5.4809    0.0000 C   0  0  0  0  0  0  0  0  0  0  0  0
    8.7948    5.1627    0.0000 C   0  0  0  0  0  0  0  0  0  0  0  0
    9.9139    6.1615    0.0000 C   0  0  0  0  0  0  0  0  0  0  0  0
   11.3385    5.6918    0.0000 C   0  0  0  0  0  0  0  0  0  0  0  0
   12.4575    6.6907    0.0000 C   0  0  0  0  0  0  0  0  0  0  0  0
   13.8821    6.2210    0.0000 C   0  0  0  0  0  0  0  0  0  0  0  0
   15.0011    7.2199    0.0000 C   0  0  0  0  0  0  0  0  0  0  0  0
   14.6955    8.6884    0.0000 C   0  0  0  0  0  0  0  0  0  0  0  0
   13.2710    9.1581    0.0000 C   0  0  0  0  0  0  0  0  0  0  0  0
   12.1519    8.1592    0.0000 N   0  0  0  0  0  0  0  0  0  0  0  0
    8.9451    3.6702    0.0000 N   0  0  0  0  0  0  0  0  0  0  0  0
    7.5721    3.0660    0.0000 N   0  0  0  0  0  0  0  0  0  0  0  0
    6.5735    4.1851    0.0000 C   0  0  0  0  0  0  0  0  0  0  0  0
    5.0734    4.1916    0.0000 C   0  0  0  0  0  0  0  0  0  0  0  0
  1  2  1  0  0  0  0
  2  3  1  0  0  0  0
  3  4  2  0  0  0  0
  3  5  1  0  0  0  0
  6  5  2  0  0  0  0
  5 10  1  0  0  0  0
  7  6  1  0  0  0  0
  8  7  2  0  0  0  0
  9  8  1  0  0  0  0
 10  9  2  0  0  0  0
 10 11  1  0  0  0  0
 11 12  1  0  0  0  0
 13 12  1  0  0  0  0
 12 28  2  0  0  0  0
 14 13  2  0  0  0  0
 15 14  1  0  0  0  0
 16 15  2  0  0  0  0
 15 27  1  0  0  0  0
 16 17  1  0  0  0  0
 25 16  1  0  0  0  0
 17 18  2  0  0  0  0
 18 19  1  0  0  0  0
 20 19  2  0  0  0  0
 19 24  1  0  0  0  0
 21 20  1  0  0  0  0
 22 21  2  0  0  0  0
 23 22  1  0  0  0  0
 24 23  2  0  0  0  0
 26 25  1  0  0  0  0
 27 26  2  0  0  0  0
 28 27  1  0  0  0  0
M  END
> <Inchi_key>
RITAVMQDGBJQJZ-FMIVXFBMSA-N

> <Source>
Mulliner

> <ID>
HT0207

> <H_MFHB>
0

> <CAS>


> <Cholestasis>


> <Name>
axitinib

> <Class>
0

$$$$