
  -INDIGO-08031710012D

 10  9  0  0  0  0  0  0  0  0999 V2000
    0.4715   -4.6285    0.0000 C   0  0  0  0  0  0  0  0  0  0  0  0
    0.4715   -3.1285    0.0000 C   0  0  0  0  0  0  0  0  0  0  0  0
    1.7706   -2.3785    0.0000 C   0  0  0  0  0  0  0  0  0  0  0  0
    3.0696   -3.1285    0.0000 C   0  0  0  0  0  0  0  0  0  0  0  0
    4.3687   -2.3785    0.0000 C   0  0  0  0  0  0  0  0  0  0  0  0
    4.3687   -0.8785    0.0000 O   0  0  0  0  0  0  0  0  0  0  0  0
    5.6677   -3.1285    0.0000 O   0  0  0  0  0  0  0  0  0  0  0  0
    1.7706   -0.8785    0.0000 C   0  0  0  0  0  0  0  0  0  0  0  0
    0.4715   -0.1285    0.0000 O   0  0  0  0  0  0  0  0  0  0  0  0
    3.0696   -0.1285    0.0000 O   0  0  0  0  0  0  0  0  0  0  0  0
  1  2  1  0  0  0  0
  2  3  1  0  0  0  0
  3  4  2  0  0  0  0
  3  8  1  0  0  0  0
  4  5  1  0  0  0  0
  5  6  2  0  0  0  0
  5  7  1  0  0  0  0
  8  9  2  0  0  0  0
  8 10  1  0  0  0  0
M  END
> <Inchi_key>
SASYHUDIOGGZCN-ARJAWSKDSA-N

> <Source>
Mulliner

> <ID>
HT1432

> <H_MFHB>
0

> <CAS>
204296

> <Cholestasis>


> <Name>
monoethylfumarate

> <Class>
0

$$$$