
  -INDIGO-08031710012D

  6  5  0  0  0  0  0  0  0  0999 V2000
    5.5646    0.2410    0.0000 C   0  0  0  0  0  0  0  0  0  0  0  0
    4.2655    0.9910    0.0000 C   0  0  0  0  0  0  0  0  0  0  0  0
    2.9665    0.2410    0.0000 O   0  0  0  0  0  0  0  0  0  0  0  0
    1.6675    0.9910    0.0000 C   0  0  0  0  0  0  0  0  0  0  0  0
    0.3684    0.2410    0.0000 O   0  0  0  0  0  0  0  0  0  0  0  0
    1.6675    2.4910    0.0000 C   0  0  0  0  0  0  0  0  0  0  0  0
  1  2  1  0  0  0  0
  2  3  1  0  0  0  0
  3  4  1  0  0  0  0
  4  5  2  0  0  0  0
  4  6  1  0  0  0  0
M  END
> <Inchi_key>
XEKOWRVHYACXOJ-UHFFFAOYSA-N

> <Source>
Mulliner

> <ID>
HT2367

> <H_MFHB>
0

> <CAS>


> <Cholestasis>


> <Name>


> <Class>
0

$$$$