

  -INDIGO-08031710012D

 21 23  0  0  0  0  0  0  0  0999 V2000
   -0.1462   -1.4258    0.0000 C   0  0  0  0  0  0  0  0  0  0  0  0
    1.3225   -1.7301    0.0000 N   0  0  0  0  0  0  0  0  0  0  0  0
    0.7352   -3.1103    0.0000 C   0  0  0  0  0  0  0  0  0  0  0  0
    2.6247   -1.5467    0.0000 C   0  0  0  0  0  0  0  0  0  0  0  0
    2.7672   -0.1150    0.0000 C   0  0  0  0  0  0  0  0  0  0  0  0
    2.1281    1.0561    0.0000 C   0  0  0  0  0  0  0  0  0  0  0  0
    2.2925   -0.5613    0.0000 C   0  0  0  0  0  0  0  0  0  0  0  0
    3.8428   -1.4629    0.0000 C   0  0  0  0  0  0  0  0  0  0  0  0
    5.0668   -1.2577    0.0000 C   0  0  0  0  0  0  0  0  0  0  0  0
    4.0869   -2.4280    0.0000 C   0  0  0  0  0  0  0  0  0  0  0  0
    6.3682   -0.5118    0.0000 O   0  0  0  0  0  0  0  0  0  0  0  0
    7.6646   -1.2659    0.0000 C   0  0  0  0  0  0  0  0  0  0  0  0
    7.6600   -2.7659    0.0000 O   0  0  0  0  0  0  0  0  0  0  0  0
    8.9660   -0.5200    0.0000 C   0  0  0  0  0  0  0  0  0  0  0  0
    8.9710    0.9800    0.0000 O   0  0  0  0  0  0  0  0  0  0  0  0
   10.2629   -1.2741    0.0000 C   0  0  0  0  0  0  0  0  0  0  0  0
   11.5643   -0.5282    0.0000 C   0  0  0  0  0  0  0  0  0  0  0  0
   12.8609   -1.2823    0.0000 C   0  0  0  0  0  0  0  0  0  0  0  0
   12.8561   -2.7823    0.0000 C   0  0  0  0  0  0  0  0  0  0  0  0
   11.5547   -3.5282    0.0000 C   0  0  0  0  0  0  0  0  0  0  0  0
   10.2581   -2.7741    0.0000 C   0  0  0  0  0  0  0  0  0  0  0  0
  1  2  1  0  0  0  0
  2  3  1  0  0  0  0
  4  2  1  0  0  0  0
  2  7  1  0  0  0  0
  4  5  1  0  0  0  0
 10  4  1  0  0  0  0
  5  6  1  0  0  0  0
  6  7  1  0  0  0  0
  7  8  1  0  0  0  0
  8  9  1  0  0  0  0
  9 10  1  0  0  0  0
  9 11  1  0  0  0  0
 11 12  1  0  0  0  0
 12 13  2  0  0  0  0
 12 14  1  0  0  0  0
 14 15  1  0  0  0  0
 14 16  1  0  0  0  0
 17 16  2  0  0  0  0
 16 21  1  0  0  0  0
 18 17  1  0  0  0  0
 19 18  2  0  0  0  0
 20 19  1  0  0  0  0
 21 20  2  0  0  0  0
M  CHG  1   2   1
M  END
> <Inchi_key>
WKWOJBUWWZTUQV-UHFFFAOYSA-N

> <Source>
Mulliner

> <ID>
HT1039

> <H_MFHB>
0

> <CAS>


> <Cholestasis>


> <Name>
homatropine methylbromide

> <Class>
0


$$$$