

  -INDIGO-08031710012D

 15 15  0  0  0  0  0  0  0  0999 V2000
   -0.1883   -2.1026    0.0000 C   0  0  0  0  0  0  0  0  0  0  0  0
    1.1108   -1.3526    0.0000 C   0  0  0  0  0  0  0  0  0  0  0  0
    2.4098   -2.1026    0.0000 C   0  0  0  0  0  0  0  0  0  0  0  0
    2.4098   -3.6026    0.0000 C   0  0  0  0  0  0  0  0  0  0  0  0
    3.7088   -1.3526    0.0000 C   0  0  0  0  0  0  0  0  0  0  0  0
    2.4098   -0.6026    0.0000 C   0  0  0  0  0  0  0  0  0  0  0  0
    2.4098    0.8974    0.0000 C   0  0  0  0  0  0  0  0  0  0  0  0
    4.4588   -0.0536    0.0000 C   0  0  0  0  0  0  0  0  0  0  0  0
    3.7088    1.2454    0.0000 O   0  0  0  0  0  0  0  0  0  0  0  0
    5.9588   -0.0536    0.0000 N   0  0  0  0  0  0  0  0  0  0  0  0
    6.7088   -1.3526    0.0000 C   0  0  0  0  0  0  0  0  0  0  0  0
    8.2088   -1.3526    0.0000 O   0  0  0  0  0  0  0  0  0  0  0  0
    5.9588   -2.6517    0.0000 N   0  0  0  0  0  0  0  0  0  0  0  0
    4.4588   -2.6517    0.0000 C   0  0  0  0  0  0  0  0  0  0  0  0
    3.7088   -3.9507    0.0000 O   0  0  0  0  0  0  0  0  0  0  0  0
  1  2  1  0  0  0  0
  2  3  1  0  0  0  0
  3  4  1  0  0  0  0
  3  5  1  0  0  0  0
  5  6  1  0  0  0  0
  8  5  1  0  0  0  0
  5 14  1  0  0  0  0
  6  7  1  0  0  0  0
  8  9  2  0  0  0  0
 10  8  1  0  0  0  0
 11 10  1  0  0  0  0
 11 12  2  0  0  0  0
 13 11  1  0  0  0  0
 14 13  1  0  0  0  0
 14 15  2  0  0  0  0
M  END
> <Inchi_key>
ZRIHAIZYIMGOAB-UHFFFAOYSA-N

> <Source>
Mulliner

> <ID>
HT0333

> <H_MFHB>
0

> <CAS>


> <Cholestasis>


> <Name>
butabarbital sodium;butabarbital

> <Class>
0


$$$$