
  -INDIGO-08031710012D

 13 13  0  0  0  0  0  0  0  0999 V2000
    8.5197    2.2828    0.0000 C   0  0  0  0  0  0  0  0  0  0  0  0
    7.2205    1.5328    0.0000 N   0  0  0  0  0  0  0  0  0  0  0  0
    7.2205    0.0328    0.0000 C   0  0  0  0  0  0  0  0  0  0  0  0
    5.9217    2.2828    0.0000 C   0  0  0  0  0  0  0  0  0  0  0  0
    5.9217    3.7828    0.0000 O   0  0  0  0  0  0  0  0  0  0  0  0
    4.6226    1.5328    0.0000 O   0  0  0  0  0  0  0  0  0  0  0  0
    3.3235    2.2828    0.0000 C   0  0  0  0  0  0  0  0  0  0  0  0
    3.3235    3.7828    0.0000 C   0  0  0  0  0  0  0  0  0  0  0  0
    2.0244    4.5328    0.0000 C   0  0  0  0  0  0  0  0  0  0  0  0
    0.7254    3.7828    0.0000 C   0  0  0  0  0  0  0  0  0  0  0  0
    0.7254    2.2828    0.0000 N   0  0  0  0  0  0  0  0  0  0  0  0
   -0.5736    1.5328    0.0000 C   0  0  0  0  0  0  0  0  0  0  0  0
    2.0244    1.5328    0.0000 C   0  0  0  0  0  0  0  0  0  0  0  0
  1  2  1  0  0  0  0
  2  3  1  0  0  0  0
  2  4  1  0  0  0  0
  4  5  2  0  0  0  0
  4  6  1  0  0  0  0
  6  7  1  0  0  0  0
  8  7  2  0  0  0  0
  7 13  1  0  0  0  0
  9  8  1  0  0  0  0
 10  9  2  0  0  0  0
 11 10  1  0  0  0  0
 11 12  1  0  0  0  0
 13 11  2  0  0  0  0
M  CHG  1  11   1
M  END
> <Inchi_key>
RVOLLAQWKVFTGE-UHFFFAOYSA-N

> <Source>
Mulliner

> <ID>
HT1776

> <H_MFHB>
0

> <CAS>


> <Cholestasis>


> <Name>
pyridostigmine bromide;pyridostigmine

> <Class>
0

$$$$