

  -INDIGO-08031710012D

 11 11  0  0  0  0  0  0  0  0999 V2000
    8.0379   -2.1538    0.0000 C   0  0  0  0  0  0  0  0  0  0  0  0
    6.7389   -1.4038    0.0000 C   0  0  0  0  0  0  0  0  0  0  0  0
    6.7389    0.0962    0.0000 O   0  0  0  0  0  0  0  0  0  0  0  0
    5.4400   -2.1538    0.0000 O   0  0  0  0  0  0  0  0  0  0  0  0
    4.1409   -1.4038    0.0000 C   0  0  0  0  0  0  0  0  0  0  0  0
    4.1409    0.0962    0.0000 C   0  0  0  0  0  0  0  0  0  0  0  0
    2.8418    0.8462    0.0000 C   0  0  0  0  0  0  0  0  0  0  0  0
    1.5427    0.0962    0.0000 C   0  0  0  0  0  0  0  0  0  0  0  0
    1.5427   -1.4038    0.0000 C   0  0  0  0  0  0  0  0  0  0  0  0
    0.2437   -2.1538    0.0000 C   0  0  0  0  0  0  0  0  0  0  0  0
    2.8418   -2.1538    0.0000 C   0  0  0  0  0  0  0  0  0  0  0  0
  1  2  1  0  0  0  0
  2  3  2  0  0  0  0
  2  4  1  0  0  0  0
  4  5  1  0  0  0  0
  6  5  2  0  0  0  0
  5 11  1  0  0  0  0
  7  6  1  0  0  0  0
  8  7  2  0  0  0  0
  9  8  1  0  0  0  0
  9 10  1  0  0  0  0
 11  9  2  0  0  0  0
M  END
> <Inchi_key>
OTGAHJPFNKQGAE-UHFFFAOYSA-N

> <Source>
Mulliner

> <ID>
HT2627

> <H_MFHB>
0

> <CAS>


> <Cholestasis>


> <Name>


> <Class>
0


$$$$