

  -INDIGO-08031710012D

 16 17  0  0  0  0  0  0  0  0999 V2000
   12.5794   -3.3707    0.0000 C   0  0  0  0  0  0  0  0  0  0  0  0
   11.2805   -2.6207    0.0000 C   0  0  0  0  0  0  0  0  0  0  0  0
    9.9813   -3.3707    0.0000 O   0  0  0  0  0  0  0  0  0  0  0  0
    8.6822   -2.6207    0.0000 C   0  0  0  0  0  0  0  0  0  0  0  0
    8.6822   -1.1207    0.0000 C   0  0  0  0  0  0  0  0  0  0  0  0
    7.3833   -0.3707    0.0000 C   0  0  0  0  0  0  0  0  0  0  0  0
    6.0842   -1.1207    0.0000 C   0  0  0  0  0  0  0  0  0  0  0  0
    4.6577   -0.6571    0.0000 N   0  0  0  0  0  0  0  0  0  0  0  0
    3.7761   -1.8707    0.0000 C   0  0  0  0  0  0  0  0  0  0  0  0
    4.6577   -3.0842    0.0000 S   0  0  0  0  0  0  0  0  0  0  0  0
    6.0842   -2.6207    0.0000 C   0  0  0  0  0  0  0  0  0  0  0  0
    7.3833   -3.3707    0.0000 C   0  0  0  0  0  0  0  0  0  0  0  0
    2.2759   -1.8707    0.0000 S   0  0  0  0  0  0  0  0  0  0  0  0
    2.2759   -3.3707    0.0000 O   0  0  0  0  0  0  0  0  0  0  0  0
    2.2759   -0.3707    0.0000 O   0  0  0  0  0  0  0  0  0  0  0  0
    0.7760   -1.8707    0.0000 N   0  0  0  0  0  0  0  0  0  0  0  0
  1  2  1  0  0  0  0
  2  3  1  0  0  0  0
  3  4  1  0  0  0  0
  5  4  2  0  0  0  0
  4 12  1  0  0  0  0
  6  5  1  0  0  0  0
  7  6  2  0  0  0  0
  8  7  1  0  0  0  0
  7 11  1  0  0  0  0
  9  8  2  0  0  0  0
 10  9  1  0  0  0  0
  9 13  1  0  0  0  0
 11 10  1  0  0  0  0
 12 11  2  0  0  0  0
 13 14  2  0  0  0  0
 13 15  2  0  0  0  0
 13 16  1  0  0  0  0
M  END
> <Inchi_key>
OUZWUKMCLIBBOG-UHFFFAOYSA-N

> <Source>
Mulliner

> <ID>
HT0813

> <H_MFHB>
0

> <CAS>


> <Cholestasis>


> <Name>
ethoxzolamide

> <Class>
0


$$$$