

  -INDIGO-08031710012D

 23 24  0  0  0  0  0  0  0  0999 V2000
    1.3506   -5.0403    0.0000 C   0  0  0  0  0  0  0  0  0  0  0  0
    2.6496   -4.2902    0.0000 O   0  0  0  0  0  0  0  0  0  0  0  0
    2.6496   -2.7902    0.0000 C   0  0  0  0  0  0  0  0  0  0  0  0
    3.9487   -2.0403    0.0000 O   0  0  0  0  0  0  0  0  0  0  0  0
    3.9487   -0.5403    0.0000 C   0  0  0  0  0  0  0  0  0  0  0  0
    5.2477    0.2098    0.0000 O   0  0  0  0  0  0  0  0  0  0  0  0
    6.5466   -0.5403    0.0000 C   0  0  0  0  0  0  0  0  0  0  0  0
    6.5466   -2.0403    0.0000 C   0  0  0  0  0  0  0  0  0  0  0  0
    5.2477   -2.7902    0.0000 O   0  0  0  0  0  0  0  0  0  0  0  0
    7.8457   -2.7902    0.0000 C   0  0  0  0  0  0  0  0  0  0  0  0
    7.8457   -4.2902    0.0000 O   0  0  0  0  0  0  0  0  0  0  0  0
    9.1447   -2.0403    0.0000 C   0  0  0  0  0  0  0  0  0  0  0  0
   10.4438   -2.7902    0.0000 O   0  0  0  0  0  0  0  0  0  0  0  0
    9.1447   -0.5403    0.0000 O   0  0  0  0  0  0  0  0  0  0  0  0
    7.8457    0.2098    0.0000 C   0  0  0  0  0  0  0  0  0  0  0  0
    7.8457    1.7098    0.0000 O   0  0  0  0  0  0  0  0  0  0  0  0
    9.1447    2.4597    0.0000 C   0  0  0  0  0  0  0  0  0  0  0  0
    2.6496    0.2098    0.0000 C   0  0  0  0  0  0  0  0  0  0  0  0
    2.6496    1.7098    0.0000 O   0  0  0  0  0  0  0  0  0  0  0  0
    1.3506   -0.5403    0.0000 C   0  0  0  0  0  0  0  0  0  0  0  0
    0.0515    0.2098    0.0000 O   0  0  0  0  0  0  0  0  0  0  0  0
    1.3506   -2.0403    0.0000 C   0  0  0  0  0  0  0  0  0  0  0  0
    0.0515   -2.7902    0.0000 O   0  0  0  0  0  0  0  0  0  0  0  0
  1  2  1  0  0  0  0
  2  3  1  0  0  0  0
  4  3  1  0  0  0  0
  3 22  1  0  0  0  0
  5  4  1  0  0  0  0
  5  6  1  0  0  0  0
 18  5  1  0  0  0  0
  6  7  1  0  0  0  0
  8  7  1  0  0  0  0
  7 15  1  0  0  0  0
  8  9  1  0  0  0  0
 10  8  1  0  0  0  0
 10 11  1  0  0  0  0
 12 10  1  0  0  0  0
 12 13  1  0  0  0  0
 14 12  1  0  0  0  0
 15 14  1  0  0  0  0
 15 16  1  0  0  0  0
 16 17  1  0  0  0  0
 18 19  1  0  0  0  0
 20 18  1  0  0  0  0
 20 21  1  0  0  0  0
 22 20  1  0  0  0  0
 22 23  1  0  0  0  0
M  END
> <Inchi_key>
YESIPHSORIDCNY-UHFFFAOYSA-N

> <Source>
Mulliner

> <ID>
HT3563

> <H_MFHB>
0

> <CAS>


> <Cholestasis>


> <Name>


> <Class>
0


$$$$