
  -INDIGO-08031710012D

 11 12  0  0  0  0  0  0  0  0999 V2000
    7.2928   -0.7732    0.0000 O   0  0  0  0  0  0  0  0  0  0  0  0
    5.9938   -0.0232    0.0000 C   0  0  0  0  0  0  0  0  0  0  0  0
    4.6948   -0.7732    0.0000 O   0  0  0  0  0  0  0  0  0  0  0  0
    3.3957   -0.0232    0.0000 C   0  0  0  0  0  0  0  0  0  0  0  0
    2.0967   -0.7732    0.0000 C   0  0  0  0  0  0  0  0  0  0  0  0
    0.7976   -0.0232    0.0000 C   0  0  0  0  0  0  0  0  0  0  0  0
    0.7976    1.4768    0.0000 C   0  0  0  0  0  0  0  0  0  0  0  0
    2.0967    2.2268    0.0000 C   0  0  0  0  0  0  0  0  0  0  0  0
    3.3957    1.4768    0.0000 C   0  0  0  0  0  0  0  0  0  0  0  0
    4.6948    2.2268    0.0000 C   0  0  0  0  0  0  0  0  0  0  0  0
    5.9938    1.4768    0.0000 C   0  0  0  0  0  0  0  0  0  0  0  0
  1  2  2  0  0  0  0
  3  2  1  0  0  0  0
  2 11  1  0  0  0  0
  4  3  1  0  0  0  0
  5  4  2  0  0  0  0
  4  9  1  0  0  0  0
  6  5  1  0  0  0  0
  7  6  2  0  0  0  0
  8  7  1  0  0  0  0
  9  8  2  0  0  0  0
 10  9  1  0  0  0  0
 11 10  2  0  0  0  0
M  END
> <Inchi_key>
ZYGHJZDHTFUPRJ-UHFFFAOYSA-N

> <Source>
Mulliner

> <ID>
HT2608

> <H_MFHB>
0

> <CAS>
91-64-5

> <Cholestasis>


> <Name>
coumarin

> <Class>
0

$$$$