
  -INDIGO-08031709442D

 28 31  0  0  0  0  0  0  0  0999 V2000
    1.3928    2.9633    0.0000 O   0  0  0  0  0  0  0  0  0  0  0  0
    0.0784    2.2410    0.0000 C   0  0  0  0  0  0  0  0  0  0  0  0
   -1.2047    3.0182    0.0000 C   0  0  0  0  0  0  0  0  0  0  0  0
   -1.1730    4.5178    0.0000 N   0  0  0  0  0  0  0  0  0  0  0  0
    0.1414    5.2401    0.0000 C   0  0  0  0  0  0  0  0  0  0  0  0
    1.4245    4.4630    0.0000 C   0  0  0  0  0  0  0  0  0  0  0  0
   -2.4561    5.2951    0.0000 C   0  0  0  0  0  0  0  0  0  0  0  0
   -3.7705    4.5726    0.0000 C   0  0  0  0  0  0  0  0  0  0  0  0
   -5.0534    5.3499    0.0000 C   0  0  0  0  0  0  0  0  0  0  0  0
   -5.1786    6.8446    0.0000 C   0  0  0  0  0  0  0  0  0  0  0  0
   -6.6391    7.1874    0.0000 N   0  0  0  0  0  0  0  0  0  0  0  0
   -7.2201    8.5701    0.0000 C   0  0  0  0  0  0  0  0  0  0  0  0
   -6.3130    9.7649    0.0000 C   0  0  0  0  0  0  0  0  0  0  0  0
   -7.4163    5.9044    0.0000 C   0  0  0  0  0  0  0  0  0  0  0  0
   -8.9110    5.7792    0.0000 O   0  0  0  0  0  0  0  0  0  0  0  0
   -6.4362    4.7688    0.0000 C   0  0  0  0  0  0  0  0  0  0  0  0
   -7.6607    3.9021    0.0000 C   0  0  0  0  0  0  0  0  0  0  0  0
   -7.5223    2.4086    0.0000 C   0  0  0  0  0  0  0  0  0  0  0  0
   -8.7466    1.5420    0.0000 C   0  0  0  0  0  0  0  0  0  0  0  0
  -10.1093    2.1691    0.0000 C   0  0  0  0  0  0  0  0  0  0  0  0
  -10.2477    3.6626    0.0000 C   0  0  0  0  0  0  0  0  0  0  0  0
   -9.0232    4.5292    0.0000 C   0  0  0  0  0  0  0  0  0  0  0  0
   -5.7254    3.4480    0.0000 C   0  0  0  0  0  0  0  0  0  0  0  0
   -4.2261    3.4032    0.0000 C   0  0  0  0  0  0  0  0  0  0  0  0
   -3.5151    2.0824    0.0000 C   0  0  0  0  0  0  0  0  0  0  0  0
   -4.3036    0.8063    0.0000 C   0  0  0  0  0  0  0  0  0  0  0  0
   -5.8029    0.8511    0.0000 C   0  0  0  0  0  0  0  0  0  0  0  0
   -6.5139    2.1719    0.0000 C   0  0  0  0  0  0  0  0  0  0  0  0
  2  1  1  0  0  0  0
  1  6  1  0  0  0  0
  3  2  1  0  0  0  0
  4  3  1  0  0  0  0
  5  4  1  0  0  0  0
  4  7  1  0  0  0  0
  6  5  1  0  0  0  0
  7  8  1  0  0  0  0
  8  9  1  0  0  0  0
 10  9  1  0  0  0  0
  9 16  1  0  0  0  0
 11 10  1  0  0  0  0
 11 12  1  0  0  0  0
 14 11  1  0  0  0  0
 12 13  1  0  0  0  0
 14 15  2  0  0  0  0
 16 14  1  0  0  0  0
 16 17  1  0  0  0  0
 16 23  1  0  0  0  0
 18 17  2  0  0  0  0
 17 22  1  0  0  0  0
 19 18  1  0  0  0  0
 20 19  2  0  0  0  0
 21 20  1  0  0  0  0
 22 21  2  0  0  0  0
 24 23  2  0  0  0  0
 23 28  1  0  0  0  0
 25 24  1  0  0  0  0
 26 25  2  0  0  0  0
 27 26  1  0  0  0  0
 28 27  2  0  0  0  0
M  END
> <Inchi_key>
XFDJYSQDBULQSI-UHFFFAOYSA-N

> <Source>
Kotsampasakou

> <ID>
EK0176

> <H_MFHB>


> <CAS>


> <Cholestasis>
0

> <Name>
doxapram hydrochloride

> <Class>
0

$$$$