

  -INDIGO-08031710012D

 12 13  0  0  0  0  0  0  0  0999 V2000
    8.4840   -2.7152    0.0000 N   0  0  0  0  0  0  0  0  0  0  0  0
    7.2628   -1.8443    0.0000 C   0  0  0  0  0  0  0  0  0  0  0  0
    7.2495   -0.3444    0.0000 N   0  0  0  0  0  0  0  0  0  0  0  0
    5.8189    0.1065    0.0000 C   0  0  0  0  0  0  0  0  0  0  0  0
    4.9479   -1.1147    0.0000 C   0  0  0  0  0  0  0  0  0  0  0  0
    5.8403   -2.3204    0.0000 O   0  0  0  0  0  0  0  0  0  0  0  0
    3.4480   -1.1280    0.0000 C   0  0  0  0  0  0  0  0  0  0  0  0
    2.6865    0.1643    0.0000 C   0  0  0  0  0  0  0  0  0  0  0  0
    1.1866    0.1511    0.0000 C   0  0  0  0  0  0  0  0  0  0  0  0
    0.4481   -1.1545    0.0000 C   0  0  0  0  0  0  0  0  0  0  0  0
    1.2096   -2.4469    0.0000 C   0  0  0  0  0  0  0  0  0  0  0  0
    2.7095   -2.4336    0.0000 C   0  0  0  0  0  0  0  0  0  0  0  0
  1  2  1  0  0  0  0
  3  2  2  0  0  0  0
  2  6  1  0  0  0  0
  4  3  1  0  0  0  0
  5  4  1  0  0  0  0
  6  5  1  0  0  0  0
  5  7  1  0  0  0  0
  8  7  2  0  0  0  0
  7 12  1  0  0  0  0
  9  8  1  0  0  0  0
 10  9  2  0  0  0  0
 11 10  1  0  0  0  0
 12 11  2  0  0  0  0
M  END
> <Inchi_key>
SYAKTDIEAPMBAL-UHFFFAOYSA-N

> <Source>
Mulliner

> <ID>
HT2683

> <H_MFHB>
0

> <CAS>


> <Cholestasis>


> <Name>


> <Class>
0


$$$$