
  -INDIGO-08031710012D

 44 51  0  0  0  0  0  0  0  0999 V2000
    8.4319    0.8566    0.0000 C   0  0  0  0  0  0  0  0  0  0  0  0
    8.4322   -0.6434    0.0000 N   0  0  0  0  0  0  0  0  0  0  0  0
    7.1351   -1.3969    0.0000 C   0  0  0  0  0  0  0  0  0  0  0  0
    7.1391   -2.8969    0.0000 C   0  0  0  0  0  0  0  0  0  0  0  0
    8.4394   -3.6426    0.0000 C   0  0  0  0  0  0  0  0  0  0  0  0
    9.7446   -2.8566    0.0000 C   0  0  0  0  0  0  0  0  0  0  0  0
    9.7253   -1.3942    0.0000 C   0  0  0  0  0  0  0  0  0  0  0  0
   10.9906   -0.6471    0.0000 C   0  0  0  0  0  0  0  0  0  0  0  0
   12.2718   -1.3702    0.0000 C   0  0  0  0  0  0  0  0  0  0  0  0
   13.7242   -0.9630    0.0000 C   0  0  0  0  0  0  0  0  0  0  0  0
   14.6787   -2.5664    0.0000 N   0  0  0  0  0  0  0  0  0  0  0  0
   16.1610   -2.7956    0.0000 C   0  0  0  0  0  0  0  0  0  0  0  0
   13.5599   -3.5617    0.0000 C   0  0  0  0  0  0  0  0  0  0  0  0
   13.5708   -5.0243    0.0000 C   0  0  0  0  0  0  0  0  0  0  0  0
   12.3061   -5.7679    0.0000 C   0  0  0  0  0  0  0  0  0  0  0  0
   11.0352   -5.0449    0.0000 C   0  0  0  0  0  0  0  0  0  0  0  0
   11.0159   -3.5796    0.0000 C   0  0  0  0  0  0  0  0  0  0  0  0
   12.2818   -2.8381    0.0000 C   0  0  0  0  0  0  0  0  0  0  0  0
    5.8423   -3.6506    0.0000 C   0  0  0  0  0  0  0  0  0  0  0  0
    5.8464   -5.1506    0.0000 O   0  0  0  0  0  0  0  0  0  0  0  0
    4.5412   -2.9042    0.0000 N   0  0  0  0  0  0  0  0  0  0  0  0
    3.2444   -3.6578    0.0000 C   0  0  0  0  0  0  0  0  0  0  0  0
    4.5115   -4.4603    0.0000 C   0  0  0  0  0  0  0  0  0  0  0  0
    2.3646   -2.4428    0.0000 O   0  0  0  0  0  0  0  0  0  0  0  0
    0.9372   -2.9042    0.0000 C   0  0  0  0  0  0  0  0  0  0  0  0
    1.0965   -1.4126    0.0000 O   0  0  0  0  0  0  0  0  0  0  0  0
   -0.3605   -2.1522    0.0000 C   0  0  0  0  0  0  0  0  0  0  0  0
   -0.6701   -0.6844    0.0000 C   0  0  0  0  0  0  0  0  0  0  0  0
   -2.1617   -0.5253    0.0000 C   0  0  0  0  0  0  0  0  0  0  0  0
   -2.7740   -1.8946    0.0000 C   0  0  0  0  0  0  0  0  0  0  0  0
   -1.6608   -2.9002    0.0000 N   0  0  0  0  0  0  0  0  0  0  0  0
   -1.6633   -4.4002    0.0000 C   0  0  0  0  0  0  0  0  0  0  0  0
   -2.9635   -5.1481    0.0000 O   0  0  0  0  0  0  0  0  0  0  0  0
   -0.3655   -5.1522    0.0000 C   0  0  0  0  0  0  0  0  0  0  0  0
   -0.3677   -6.6523    0.0000 C   0  0  0  0  0  0  0  0  0  0  0  0
   -1.6679   -7.4002    0.0000 C   0  0  0  0  0  0  0  0  0  0  0  0
   -1.6704   -8.9000    0.0000 C   0  0  0  0  0  0  0  0  0  0  0  0
   -2.9703   -9.6481    0.0000 C   0  0  0  0  0  0  0  0  0  0  0  0
   -4.2684   -8.8960    0.0000 C   0  0  0  0  0  0  0  0  0  0  0  0
   -4.2659   -7.3960    0.0000 C   0  0  0  0  0  0  0  0  0  0  0  0
   -2.9657   -6.6481    0.0000 C   0  0  0  0  0  0  0  0  0  0  0  0
    0.9350   -4.4042    0.0000 N   0  0  0  0  0  0  0  0  0  0  0  0
    2.3606   -4.8700    0.0000 C   0  0  0  0  0  0  0  0  0  0  0  0
    2.8220   -6.2974    0.0000 O   0  0  0  0  0  0  0  0  0  0  0  0
  1  2  1  0  0  0  0
  3  2  1  0  0  0  0
  2  7  1  0  0  0  0
  4  3  1  0  0  0  0
  5  4  1  0  0  0  0
  4 19  1  0  0  0  0
  6  5  2  0  0  0  0
  6  7  1  0  0  0  0
 17  6  1  0  0  0  0
  7  8  1  0  0  0  0
  8  9  1  0  0  0  0
 10  9  2  0  0  0  0
  9 18  1  0  0  0  0
 11 10  1  0  0  0  0
 11 12  1  0  0  0  0
 13 11  1  0  0  0  0
 14 13  1  0  0  0  0
 13 18  2  0  0  0  0
 15 14  2  0  0  0  0
 16 15  1  0  0  0  0
 17 16  2  0  0  0  0
 18 17  1  0  0  0  0
 19 20  2  0  0  0  0
 19 21  1  0  0  0  0
 21 22  1  0  0  0  0
 22 23  1  0  0  0  0
 24 22  1  0  0  0  0
 22 43  1  0  0  0  0
 25 24  1  0  0  0  0
 25 26  1  0  0  0  0
 27 25  1  0  0  0  0
 25 42  1  0  0  0  0
 28 27  1  0  0  0  0
 27 31  1  0  0  0  0
 29 28  1  0  0  0  0
 30 29  1  0  0  0  0
 31 30  1  0  0  0  0
 32 31  1  0  0  0  0
 32 33  2  0  0  0  0
 34 32  1  0  0  0  0
 34 35  1  0  0  0  0
 42 34  1  0  0  0  0
 35 36  1  0  0  0  0
 37 36  2  0  0  0  0
 36 41  1  0  0  0  0
 38 37  1  0  0  0  0
 39 38  2  0  0  0  0
 40 39  1  0  0  0  0
 41 40  2  0  0  0  0
 43 42  1  0  0  0  0
 43 44  2  0  0  0  0
M  END
> <Inchi_key>
SZUQJDJBJHBVBO-UHFFFAOYSA-N

> <Source>
Mulliner

> <ID>
HT1363

> <H_MFHB>
0

> <CAS>


> <Cholestasis>


> <Name>
methylergotamine

> <Class>
0

$$$$