
  -INDIGO-08031709442D

 19 19  0  0  0  0  0  0  0  0999 V2000
   -3.7554    5.0426    0.0000 S   0  0  0  0  0  0  0  0  0  0  0  0
   -3.0155    6.3473    0.0000 C   0  0  0  0  0  0  0  0  0  0  0  0
   -1.5458    6.0467    0.0000 C   0  0  0  0  0  0  0  0  0  0  0  0
   -0.4388    7.0589    0.0000 C   0  0  0  0  0  0  0  0  0  0  0  0
   -1.3778    4.5562    0.0000 C   0  0  0  0  0  0  0  0  0  0  0  0
   -0.0730    3.8162    0.0000 N   0  0  0  0  0  0  0  0  0  0  0  0
    1.2202    4.5761    0.0000 C   0  0  0  0  0  0  0  0  0  0  0  0
    1.2088    6.0761    0.0000 O   0  0  0  0  0  0  0  0  0  0  0  0
    2.5252    3.8361    0.0000 C   0  0  0  0  0  0  0  0  0  0  0  0
    3.8184    4.5960    0.0000 N   0  0  0  0  0  0  0  0  0  0  0  0
    5.1231    3.8560    0.0000 C   0  0  0  0  0  0  0  0  0  0  0  0
    6.4163    4.6159    0.0000 C   0  0  0  0  0  0  0  0  0  0  0  0
    7.7211    3.8759    0.0000 C   0  0  0  0  0  0  0  0  0  0  0  0
    2.5366    2.3361    0.0000 C   0  0  0  0  0  0  0  0  0  0  0  0
   -2.7433    3.9356    0.0000 C   0  0  0  0  0  0  0  0  0  0  0  0
   -3.0439    2.4660    0.0000 C   0  0  0  0  0  0  0  0  0  0  0  0
   -4.4670    1.9916    0.0000 O   0  0  0  0  0  0  0  0  0  0  0  0
   -4.7675    0.5220    0.0000 C   0  0  0  0  0  0  0  0  0  0  0  0
   -1.9214    1.4709    0.0000 O   0  0  0  0  0  0  0  0  0  0  0  0
  2  1  1  0  0  0  0
  1 15  1  0  0  0  0
  3  2  2  0  0  0  0
  3  4  1  0  0  0  0
  5  3  1  0  0  0  0
  5  6  1  0  0  0  0
 15  5  2  0  0  0  0
  6  7  1  0  0  0  0
  7  8  2  0  0  0  0
  7  9  1  0  0  0  0
  9 10  1  0  0  0  0
  9 14  1  0  0  0  0
 10 11  1  0  0  0  0
 11 12  1  0  0  0  0
 12 13  1  0  0  0  0
 15 16  1  0  0  0  0
 16 17  1  0  0  0  0
 16 19  2  0  0  0  0
 17 18  1  0  0  0  0
M  END
> <Inchi_key>
QTGIAADRBBLJGA-UHFFFAOYSA-N

> <Source>
Kotsampasakou

> <ID>
EK0040

> <H_MFHB>


> <CAS>


> <Cholestasis>
0

> <Name>
articaine

> <Class>
0

$$$$