
  -INDIGO-08031710012D

 17 18  0  0  0  0  0  0  0  0999 V2000
    7.1807    4.1457    0.0000 C   0  0  0  0  0  0  0  0  0  0  0  0
    6.4305    2.8467    0.0000 C   0  0  0  0  0  0  0  0  0  0  0  0
    7.1807    1.5476    0.0000 C   0  0  0  0  0  0  0  0  0  0  0  0
    6.4305    0.2486    0.0000 O   0  0  0  0  0  0  0  0  0  0  0  0
    8.6806    1.5476    0.0000 O   0  0  0  0  0  0  0  0  0  0  0  0
    4.9306    2.8467    0.0000 C   0  0  0  0  0  0  0  0  0  0  0  0
    4.1807    1.5476    0.0000 C   0  0  0  0  0  0  0  0  0  0  0  0
    2.6806    1.5476    0.0000 C   0  0  0  0  0  0  0  0  0  0  0  0
    1.9306    2.8467    0.0000 C   0  0  0  0  0  0  0  0  0  0  0  0
    0.4307    2.8467    0.0000 N   0  0  0  0  0  0  0  0  0  0  0  0
   -0.4511    4.0602    0.0000 C   0  0  0  0  0  0  0  0  0  0  0  0
   -1.8777    3.5967    0.0000 C   0  0  0  0  0  0  0  0  0  0  0  0
   -1.8777    2.0967    0.0000 C   0  0  0  0  0  0  0  0  0  0  0  0
   -0.4511    1.6331    0.0000 C   0  0  0  0  0  0  0  0  0  0  0  0
    2.6806    4.1457    0.0000 C   0  0  0  0  0  0  0  0  0  0  0  0
    1.9306    5.4447    0.0000 Cl  0  0  0  0  0  0  0  0  0  0  0  0
    4.1807    4.1457    0.0000 C   0  0  0  0  0  0  0  0  0  0  0  0
  1  2  1  0  0  0  0
  2  3  1  0  0  0  0
  2  6  1  0  0  0  0
  3  4  2  0  0  0  0
  3  5  1  0  0  0  0
  7  6  2  0  0  0  0
  6 17  1  0  0  0  0
  8  7  1  0  0  0  0
  9  8  2  0  0  0  0
  9 10  1  0  0  0  0
 15  9  1  0  0  0  0
 11 10  1  0  0  0  0
 10 14  1  0  0  0  0
 12 11  1  0  0  0  0
 13 12  2  0  0  0  0
 14 13  1  0  0  0  0
 15 16  1  0  0  0  0
 17 15  2  0  0  0  0
M  END
> <Inchi_key>
PIDSZXPFGCURGN-UHFFFAOYSA-N

> <Source>
Mulliner

> <ID>
HT1697

> <H_MFHB>
0

> <CAS>
31793-07-4

> <Cholestasis>


> <Name>
pirprofen

> <Class>
0

$$$$