

  -INDIGO-08031710012D

 24 26  0  0  0  0  0  0  0  0999 V2000
   13.2781    3.5579    0.0000 C   0  0  0  0  0  0  0  0  0  0  0  0
   11.9790    2.8078    0.0000 C   0  0  0  0  0  0  0  0  0  0  0  0
   10.6801    3.5579    0.0000 C   0  0  0  0  0  0  0  0  0  0  0  0
   10.6801    5.0579    0.0000 O   0  0  0  0  0  0  0  0  0  0  0  0
    9.3810    2.8078    0.0000 C   0  0  0  0  0  0  0  0  0  0  0  0
    9.3810    1.3078    0.0000 C   0  0  0  0  0  0  0  0  0  0  0  0
    8.0819    0.5579    0.0000 C   0  0  0  0  0  0  0  0  0  0  0  0
    6.7829    1.3078    0.0000 C   0  0  0  0  0  0  0  0  0  0  0  0
    5.4838    0.5579    0.0000 S   0  0  0  0  0  0  0  0  0  0  0  0
    4.1847    1.3078    0.0000 C   0  0  0  0  0  0  0  0  0  0  0  0
    2.8858    0.5579    0.0000 C   0  0  0  0  0  0  0  0  0  0  0  0
    1.5867    1.3078    0.0000 C   0  0  0  0  0  0  0  0  0  0  0  0
    1.5867    2.8078    0.0000 C   0  0  0  0  0  0  0  0  0  0  0  0
    2.8858    3.5579    0.0000 C   0  0  0  0  0  0  0  0  0  0  0  0
    4.1847    2.8078    0.0000 C   0  0  0  0  0  0  0  0  0  0  0  0
    5.4838    3.5579    0.0000 N   0  0  0  0  0  0  0  0  0  0  0  0
    5.4838    5.0579    0.0000 C   0  0  0  0  0  0  0  0  0  0  0  0
    4.1847    5.8078    0.0000 C   0  0  0  0  0  0  0  0  0  0  0  0
    2.8858    5.0579    0.0000 C   0  0  0  0  0  0  0  0  0  0  0  0
    4.1847    7.3078    0.0000 N   0  0  0  0  0  0  0  0  0  0  0  0
    2.8858    8.0579    0.0000 C   0  0  0  0  0  0  0  0  0  0  0  0
    5.4838    8.0579    0.0000 C   0  0  0  0  0  0  0  0  0  0  0  0
    6.7829    2.8078    0.0000 C   0  0  0  0  0  0  0  0  0  0  0  0
    8.0819    3.5579    0.0000 C   0  0  0  0  0  0  0  0  0  0  0  0
  1  2  1  0  0  0  0
  2  3  1  0  0  0  0
  3  4  2  0  0  0  0
  3  5  1  0  0  0  0
  6  5  2  0  0  0  0
  5 24  1  0  0  0  0
  7  6  1  0  0  0  0
  8  7  2  0  0  0  0
  9  8  1  0  0  0  0
  8 23  1  0  0  0  0
 10  9  1  0  0  0  0
 11 10  2  0  0  0  0
 10 15  1  0  0  0  0
 12 11  1  0  0  0  0
 13 12  2  0  0  0  0
 14 13  1  0  0  0  0
 15 14  2  0  0  0  0
 16 15  1  0  0  0  0
 16 17  1  0  0  0  0
 23 16  1  0  0  0  0
 17 18  1  0  0  0  0
 18 19  1  0  0  0  0
 18 20  1  0  0  0  0
 20 21  1  0  0  0  0
 20 22  1  0  0  0  0
 24 23  2  0  0  0  0
M  END
> <Inchi_key>
UVOIBTBFPOZKGP-UHFFFAOYSA-N

> <Source>
Mulliner

> <ID>
HT1760

> <H_MFHB>
0

> <CAS>


> <Cholestasis>


> <Name>
propiomazine

> <Class>
0


$$$$