
  -INDIGO-08031710012D

 16 17  0  0  0  0  0  0  0  0999 V2000
    1.3604    1.3603    0.0000 O   0  0  0  0  0  0  0  0  0  0  0  0
    1.3604   -0.1397    0.0000 C   0  0  0  0  0  0  0  0  0  0  0  0
    2.6593   -0.8897    0.0000 O   0  0  0  0  0  0  0  0  0  0  0  0
    3.9583   -0.1397    0.0000 C   0  0  0  0  0  0  0  0  0  0  0  0
    5.2574   -0.8897    0.0000 C   0  0  0  0  0  0  0  0  0  0  0  0
    5.2574   -2.3897    0.0000 C   0  0  0  0  0  0  0  0  0  0  0  0
    6.5564   -3.1397    0.0000 C   0  0  0  0  0  0  0  0  0  0  0  0
    7.8555   -2.3897    0.0000 C   0  0  0  0  0  0  0  0  0  0  0  0
    7.8555   -0.8897    0.0000 C   0  0  0  0  0  0  0  0  0  0  0  0
    6.5564   -0.1397    0.0000 C   0  0  0  0  0  0  0  0  0  0  0  0
    0.0612   -0.8897    0.0000 C   0  0  0  0  0  0  0  0  0  0  0  0
    0.0612   -2.3897    0.0000 C   0  0  0  0  0  0  0  0  0  0  0  0
   -1.2377   -3.1397    0.0000 C   0  0  0  0  0  0  0  0  0  0  0  0
   -2.5368   -2.3897    0.0000 C   0  0  0  0  0  0  0  0  0  0  0  0
   -2.5368   -0.8897    0.0000 C   0  0  0  0  0  0  0  0  0  0  0  0
   -1.2377   -0.1397    0.0000 C   0  0  0  0  0  0  0  0  0  0  0  0
  1  2  2  0  0  0  0
  2  3  1  0  0  0  0
  2 11  1  0  0  0  0
  3  4  1  0  0  0  0
  4  5  1  0  0  0  0
  6  5  2  0  0  0  0
  5 10  1  0  0  0  0
  7  6  1  0  0  0  0
  8  7  2  0  0  0  0
  9  8  1  0  0  0  0
 10  9  2  0  0  0  0
 12 11  2  0  0  0  0
 11 16  1  0  0  0  0
 13 12  1  0  0  0  0
 14 13  2  0  0  0  0
 15 14  1  0  0  0  0
 16 15  2  0  0  0  0
M  END
> <Inchi_key>
SESFRYSPDFLNCH-UHFFFAOYSA-N

> <Source>
Mulliner

> <ID>
HT0258

> <H_MFHB>
0

> <CAS>


> <Cholestasis>


> <Name>
benzyl benzoate

> <Class>
0

$$$$