
  -INDIGO-08031710012D

 36 36  0  0  0  0  0  0  0  0999 V2000
   -1.1814    2.1872    0.0000 C   0  0  0  0  0  0  0  0  0  0  0  0
   -0.3592    3.4417    0.0000 C   0  0  0  0  0  0  0  0  0  0  0  0
    1.1385    3.3568    0.0000 C   0  0  0  0  0  0  0  0  0  0  0  0
    1.9471    4.5994    0.0000 N   0  0  0  0  0  0  0  0  0  0  0  0
    1.2831    5.9575    0.0000 C   0  0  0  0  0  0  0  0  0  0  0  0
   -0.2068    6.1325    0.0000 O   0  0  0  0  0  0  0  0  0  0  0  0
    2.2750    7.1631    0.0000 C   0  0  0  0  0  0  0  0  0  0  0  0
    1.8038    8.5872    0.0000 C   0  0  0  0  0  0  0  0  0  0  0  0
    0.3349    8.8913    0.0000 S   0  0  0  0  0  0  0  0  0  0  0  0
    3.7235    6.8034    0.0000 N   0  0  0  0  0  0  0  0  0  0  0  0
    4.8001    7.8375    0.0000 C   0  0  0  0  0  0  0  0  0  0  0  0
    4.4984    9.3068    0.0000 O   0  0  0  0  0  0  0  0  0  0  0  0
    6.2610    7.2872    0.0000 C   0  0  0  0  0  0  0  0  0  0  0  0
    6.3625    5.7787    0.0000 C   0  0  0  0  0  0  0  0  0  0  0  0
    7.6792    5.1029    0.0000 C   0  0  0  0  0  0  0  0  0  0  0  0
    8.9365    5.9210    0.0000 O   0  0  0  0  0  0  0  0  0  0  0  0
    7.7647    3.5986    0.0000 C   0  0  0  0  0  0  0  0  0  0  0  0
    6.4834    2.7932    0.0000 C   0  0  0  0  0  0  0  0  0  0  0  0
    6.5393    1.3123    0.0000 O   0  0  0  0  0  0  0  0  0  0  0  0
    5.4284    0.4080    0.0000 C   0  0  0  0  0  0  0  0  0  0  0  0
    5.8153   -1.0413    0.0000 O   0  0  0  0  0  0  0  0  0  0  0  0
    4.0142    0.6381    0.0000 C   0  0  0  0  0  0  0  0  0  0  0  0
    3.3242    1.9495    0.0000 N   0  0  0  0  0  0  0  0  0  0  0  0
    1.8120    2.0089    0.0000 C   0  0  0  0  0  0  0  0  0  0  0  0
    0.9985    0.7487    0.0000 O   0  0  0  0  0  0  0  0  0  0  0  0
    3.1379   -0.5793    0.0000 C   0  0  0  0  0  0  0  0  0  0  0  0
    1.6456   -0.4292    0.0000 C   0  0  0  0  0  0  0  0  0  0  0  0
    3.7541   -1.9469    0.0000 C   0  0  0  0  0  0  0  0  0  0  0  0
    7.8097    2.0925    0.0000 C   0  0  0  0  0  0  0  0  0  0  0  0
    9.0797    2.8909    0.0000 C   0  0  0  0  0  0  0  0  0  0  0  0
   10.4060    2.1901    0.0000 C   0  0  0  0  0  0  0  0  0  0  0  0
   11.6760    2.9884    0.0000 C   0  0  0  0  0  0  0  0  0  0  0  0
   13.0023    2.2877    0.0000 S   0  0  0  0  0  0  0  0  0  0  0  0
    7.4652    8.1814    0.0000 C   0  0  0  0  0  0  0  0  0  0  0  0
    8.8419    7.5857    0.0000 C   0  0  0  0  0  0  0  0  0  0  0  0
    7.2927    9.6715    0.0000 C   0  0  0  0  0  0  0  0  0  0  0  0
  1  2  1  0  0  0  0
  2  3  2  0  0  0  0
  4  3  1  0  0  0  0
  3 24  1  0  0  0  0
  5  4  1  0  0  0  0
  5  6  2  0  0  0  0
  7  5  1  0  0  0  0
  7  8  1  0  0  0  0
 10  7  1  0  0  0  0
  8  9  1  0  0  0  0
 11 10  1  0  0  0  0
 11 12  2  0  0  0  0
 13 11  1  0  0  0  0
 14 13  1  0  0  0  0
 13 34  1  0  0  0  0
 15 14  1  0  0  0  0
 15 16  2  0  0  0  0
 17 15  1  0  0  0  0
 18 17  1  0  0  0  0
 19 18  1  0  0  0  0
 18 29  1  0  0  0  0
 20 19  1  0  0  0  0
 20 21  2  0  0  0  0
 22 20  1  0  0  0  0
 23 22  1  0  0  0  0
 22 26  1  0  0  0  0
 24 23  1  0  0  0  0
 24 25  2  0  0  0  0
 26 27  1  0  0  0  0
 26 28  1  0  0  0  0
 29 30  2  0  0  0  0
 30 31  1  0  0  0  0
 31 32  1  0  0  0  0
 32 33  1  0  0  0  0
 34 35  1  0  0  0  0
 34 36  1  0  0  0  0
M  END
> <Inchi_key>
UPCFDQLGZODPFB-LGYAMPIISA-N

> <Source>
Mulliner

> <ID>
HT1843

> <H_MFHB>
0

> <CAS>


> <Cholestasis>


> <Name>
romidepsin

> <Class>
0

$$$$