

  -INDIGO-08031710012D

 14 14  0  0  0  0  0  0  0  0999 V2000
    0.4488   -1.8606    0.0000 C   0  0  0  0  0  0  0  0  0  0  0  0
    1.7478   -1.1106    0.0000 C   0  0  0  0  0  0  0  0  0  0  0  0
    1.7478    0.3894    0.0000 N   0  0  0  0  0  0  0  0  0  0  0  0
    0.4488    1.1394    0.0000 C   0  0  0  0  0  0  0  0  0  0  0  0
   -0.8502    0.3894    0.0000 C   0  0  0  0  0  0  0  0  0  0  0  0
    3.0469    1.1394    0.0000 C   0  0  0  0  0  0  0  0  0  0  0  0
    3.0469    2.6394    0.0000 O   0  0  0  0  0  0  0  0  0  0  0  0
    4.3459    0.3894    0.0000 N   0  0  0  0  0  0  0  0  0  0  0  0
    5.6451    1.1394    0.0000 C   0  0  0  0  0  0  0  0  0  0  0  0
    6.9439    0.3894    0.0000 C   0  0  0  0  0  0  0  0  0  0  0  0
    6.9439   -1.1106    0.0000 N   0  0  0  0  0  0  0  0  0  0  0  0
    8.2431   -1.8606    0.0000 C   0  0  0  0  0  0  0  0  0  0  0  0
    5.6451   -1.8606    0.0000 C   0  0  0  0  0  0  0  0  0  0  0  0
    4.3459   -1.1106    0.0000 C   0  0  0  0  0  0  0  0  0  0  0  0
  1  2  1  0  0  0  0
  2  3  1  0  0  0  0
  3  4  1  0  0  0  0
  3  6  1  0  0  0  0
  4  5  1  0  0  0  0
  6  7  2  0  0  0  0
  6  8  1  0  0  0  0
  9  8  1  0  0  0  0
  8 14  1  0  0  0  0
 10  9  1  0  0  0  0
 11 10  1  0  0  0  0
 11 12  1  0  0  0  0
 13 11  1  0  0  0  0
 14 13  1  0  0  0  0
M  END
> <Inchi_key>
RCKMWOKWVGPNJF-UHFFFAOYSA-N

> <Source>
Mulliner

> <ID>
HT0654

> <H_MFHB>
0

> <CAS>


> <Cholestasis>


> <Name>
diethylcarbamazine

> <Class>
0


$$$$