

  -INDIGO-08031710012D

 23 25  0  0  0  0  0  0  0  0999 V2000
   -0.2277   -4.3453    0.0000 N   0  0  0  0  0  0  0  0  0  0  0  0
    1.2641   -4.5021    0.0000 C   0  0  0  0  0  0  0  0  0  0  0  0
    1.8743   -5.8724    0.0000 N   0  0  0  0  0  0  0  0  0  0  0  0
    3.3658   -6.0292    0.0000 C   0  0  0  0  0  0  0  0  0  0  0  0
    4.2476   -4.8157    0.0000 N   0  0  0  0  0  0  0  0  0  0  0  0
    3.6374   -3.4454    0.0000 C   0  0  0  0  0  0  0  0  0  0  0  0
    2.1456   -3.2886    0.0000 C   0  0  0  0  0  0  0  0  0  0  0  0
    1.8340   -1.8214    0.0000 N   0  0  0  0  0  0  0  0  0  0  0  0
    3.1328   -1.0714    0.0000 C   0  0  0  0  0  0  0  0  0  0  0  0
    4.2476   -2.0751    0.0000 N   0  0  0  0  0  0  0  0  0  0  0  0
    5.7147   -1.7632    0.0000 C   0  0  0  0  0  0  0  0  0  0  0  0
    6.8297   -2.7669    0.0000 O   0  0  0  0  0  0  0  0  0  0  0  0
    8.1286   -2.0169    0.0000 C   0  0  0  0  0  0  0  0  0  0  0  0
    9.4989   -2.6270    0.0000 C   0  0  0  0  0  0  0  0  0  0  0  0
   10.7123   -1.7453    0.0000 O   0  0  0  0  0  0  0  0  0  0  0  0
   12.0828   -2.3554    0.0000 P   0  0  0  0  0  0  0  0  0  0  0  0
   12.6928   -0.9851    0.0000 O   0  0  0  0  0  0  0  0  0  0  0  0
   11.4726   -3.7257    0.0000 O   0  0  0  0  0  0  0  0  0  0  0  0
   13.4531   -2.9655    0.0000 O   0  0  0  0  0  0  0  0  0  0  0  0
    7.8167   -0.5497    0.0000 C   0  0  0  0  0  0  0  0  0  0  0  0
    8.8204    0.5651    0.0000 O   0  0  0  0  0  0  0  0  0  0  0  0
    6.3249   -0.3929    0.0000 C   0  0  0  0  0  0  0  0  0  0  0  0
    5.5749    0.9062    0.0000 O   0  0  0  0  0  0  0  0  0  0  0  0
  1  2  1  0  0  0  0
  3  2  2  0  0  0  0
  2  7  1  0  0  0  0
  4  3  1  0  0  0  0
  5  4  2  0  0  0  0
  6  5  1  0  0  0  0
  6  7  2  0  0  0  0
 10  6  1  0  0  0  0
  7  8  1  0  0  0  0
  8  9  2  0  0  0  0
  9 10  1  0  0  0  0
 10 11  1  0  0  0  0
 12 11  1  0  0  0  0
 11 22  1  0  0  0  0
 13 12  1  0  0  0  0
 13 14  1  0  0  0  0
 20 13  1  0  0  0  0
 14 15  1  0  0  0  0
 15 16  1  0  0  0  0
 16 17  2  0  0  0  0
 16 18  1  0  0  0  0
 16 19  1  0  0  0  0
 20 21  1  0  0  0  0
 22 20  1  0  0  0  0
 22 23  1  0  0  0  0
M  END
> <Inchi_key>
UDMBCSSLTHHNCD-UHFFFAOYSA-N

> <Source>
Mulliner

> <ID>
HT0075

> <H_MFHB>
0

> <CAS>


> <Cholestasis>


> <Name>
adenosine monophosphate

> <Class>
0


$$$$