
  -INDIGO-08031710012D

 16 18  0  0  0  0  0  0  0  0999 V2000
    1.3775    5.1413    0.0000 C   0  0  0  0  0  0  0  0  0  0  0  0
    2.6765    4.3913    0.0000 O   0  0  0  0  0  0  0  0  0  0  0  0
    2.6765    2.8913    0.0000 C   0  0  0  0  0  0  0  0  0  0  0  0
    3.9757    2.1413    0.0000 C   0  0  0  0  0  0  0  0  0  0  0  0
    5.2747    2.8913    0.0000 O   0  0  0  0  0  0  0  0  0  0  0  0
    6.5737    2.1413    0.0000 C   0  0  0  0  0  0  0  0  0  0  0  0
    7.8728    2.8913    0.0000 O   0  0  0  0  0  0  0  0  0  0  0  0
    6.5737    0.6413    0.0000 C   0  0  0  0  0  0  0  0  0  0  0  0
    5.2747   -0.1087    0.0000 C   0  0  0  0  0  0  0  0  0  0  0  0
    3.9757    0.6413    0.0000 C   0  0  0  0  0  0  0  0  0  0  0  0
    2.6765   -0.1087    0.0000 C   0  0  0  0  0  0  0  0  0  0  0  0
    1.3775    0.6413    0.0000 C   0  0  0  0  0  0  0  0  0  0  0  0
   -0.0489    0.1777    0.0000 C   0  0  0  0  0  0  0  0  0  0  0  0
   -0.9307    1.3913    0.0000 C   0  0  0  0  0  0  0  0  0  0  0  0
   -0.0489    2.6048    0.0000 O   0  0  0  0  0  0  0  0  0  0  0  0
    1.3775    2.1413    0.0000 C   0  0  0  0  0  0  0  0  0  0  0  0
  1  2  1  0  0  0  0
  2  3  1  0  0  0  0
  4  3  2  0  0  0  0
  3 16  1  0  0  0  0
  5  4  1  0  0  0  0
  4 10  1  0  0  0  0
  6  5  1  0  0  0  0
  6  7  2  0  0  0  0
  8  6  1  0  0  0  0
  9  8  2  0  0  0  0
 10  9  1  0  0  0  0
 11 10  2  0  0  0  0
 12 11  1  0  0  0  0
 13 12  1  0  0  0  0
 12 16  2  0  0  0  0
 14 13  2  0  0  0  0
 15 14  1  0  0  0  0
 16 15  1  0  0  0  0
M  END
> <Inchi_key>
QXKHYNVANLEOEG-UHFFFAOYSA-N

> <Source>
Mulliner

> <ID>
HT1350

> <H_MFHB>
0

> <CAS>
298-81-7

> <Cholestasis>


> <Name>
methoxsalen

> <Class>
0

$$$$