
  -INDIGO-08031710012D

 26 29  0  0  0  0  0  0  0  0999 V2000
   -0.4327    0.2498    0.0000 O   0  0  0  0  0  0  0  0  0  0  0  0
   -1.1828    1.5489    0.0000 C   0  0  0  0  0  0  0  0  0  0  0  0
   -0.4327    2.8479    0.0000 C   0  0  0  0  0  0  0  0  0  0  0  0
    1.0672    2.8479    0.0000 C   0  0  0  0  0  0  0  0  0  0  0  0
    1.8173    4.1469    0.0000 C   0  0  0  0  0  0  0  0  0  0  0  0
    3.3174    4.1469    0.0000 C   0  0  0  0  0  0  0  0  0  0  0  0
    4.0672    2.8479    0.0000 C   0  0  0  0  0  0  0  0  0  0  0  0
    3.3174    1.5489    0.0000 C   0  0  0  0  0  0  0  0  0  0  0  0
    1.8173    1.5489    0.0000 C   0  0  0  0  0  0  0  0  0  0  0  0
    5.5674    2.8479    0.0000 C   0  0  0  0  0  0  0  0  0  0  0  0
    6.3172    1.5489    0.0000 C   0  0  0  0  0  0  0  0  0  0  0  0
    7.8173    1.5489    0.0000 C   0  0  0  0  0  0  0  0  0  0  0  0
    8.5674    2.8479    0.0000 C   0  0  0  0  0  0  0  0  0  0  0  0
   10.0673    2.8479    0.0000 Cl  0  0  0  0  0  0  0  0  0  0  0  0
    7.8173    4.1469    0.0000 C   0  0  0  0  0  0  0  0  0  0  0  0
    6.3172    4.1469    0.0000 C   0  0  0  0  0  0  0  0  0  0  0  0
   -1.1828    4.1469    0.0000 C   0  0  0  0  0  0  0  0  0  0  0  0
   -0.4327    5.4460    0.0000 O   0  0  0  0  0  0  0  0  0  0  0  0
   -2.6827    4.1469    0.0000 C   0  0  0  0  0  0  0  0  0  0  0  0
   -3.4327    5.4460    0.0000 O   0  0  0  0  0  0  0  0  0  0  0  0
   -3.4327    2.8479    0.0000 C   0  0  0  0  0  0  0  0  0  0  0  0
   -4.9326    2.8479    0.0000 C   0  0  0  0  0  0  0  0  0  0  0  0
   -5.6827    1.5489    0.0000 C   0  0  0  0  0  0  0  0  0  0  0  0
   -4.9326    0.2498    0.0000 C   0  0  0  0  0  0  0  0  0  0  0  0
   -3.4327    0.2498    0.0000 C   0  0  0  0  0  0  0  0  0  0  0  0
   -2.6827    1.5489    0.0000 C   0  0  0  0  0  0  0  0  0  0  0  0
  1  2  1  0  0  0  0
  3  2  2  0  0  0  0
  2 26  1  0  0  0  0
  3  4  1  0  0  0  0
 17  3  1  0  0  0  0
  5  4  1  0  0  0  0
  4  9  1  0  0  0  0
  6  5  1  0  0  0  0
  7  6  1  0  0  0  0
  8  7  1  0  0  0  0
  7 10  1  0  0  0  0
  9  8  1  0  0  0  0
 11 10  2  0  0  0  0
 10 16  1  0  0  0  0
 12 11  1  0  0  0  0
 13 12  2  0  0  0  0
 13 14  1  0  0  0  0
 15 13  1  0  0  0  0
 16 15  2  0  0  0  0
 17 18  2  0  0  0  0
 19 17  1  0  0  0  0
 19 20  2  0  0  0  0
 21 19  1  0  0  0  0
 22 21  1  0  0  0  0
 21 26  2  0  0  0  0
 23 22  2  0  0  0  0
 24 23  1  0  0  0  0
 25 24  2  0  0  0  0
 26 25  1  0  0  0  0
M  END
> <Inchi_key>
BSJMWHQBCZFXBR-UHFFFAOYSA-N

> <Source>
Mulliner

> <ID>
HT0196

> <H_MFHB>
0

> <CAS>


> <Cholestasis>


> <Name>
atovaquone

> <Class>
0

$$$$