

  -INDIGO-08031710012D

 21 22  0  0  0  0  0  0  0  0999 V2000
    1.2602    2.3705    0.0000 C   0  0  0  0  0  0  0  0  0  0  0  0
    0.5104    1.0714    0.0000 C   0  0  0  0  0  0  0  0  0  0  0  0
   -0.2397   -0.2276    0.0000 C   0  0  0  0  0  0  0  0  0  0  0  0
   -0.7887    1.8214    0.0000 O   0  0  0  0  0  0  0  0  0  0  0  0
   -2.0878    1.0714    0.0000 C   0  0  0  0  0  0  0  0  0  0  0  0
   -3.3869    1.8214    0.0000 C   0  0  0  0  0  0  0  0  0  0  0  0
   -4.6858    1.0714    0.0000 C   0  0  0  0  0  0  0  0  0  0  0  0
   -4.6858   -0.4286    0.0000 C   0  0  0  0  0  0  0  0  0  0  0  0
   -5.9849   -1.1786    0.0000 Cl  0  0  0  0  0  0  0  0  0  0  0  0
   -3.3869   -1.1786    0.0000 C   0  0  0  0  0  0  0  0  0  0  0  0
   -2.0878   -0.4286    0.0000 C   0  0  0  0  0  0  0  0  0  0  0  0
    1.8092    0.3214    0.0000 C   0  0  0  0  0  0  0  0  0  0  0  0
    1.8092   -1.1786    0.0000 O   0  0  0  0  0  0  0  0  0  0  0  0
    3.1083    1.0714    0.0000 O   0  0  0  0  0  0  0  0  0  0  0  0
    4.4074    0.3214    0.0000 C   0  0  0  0  0  0  0  0  0  0  0  0
    5.7063    1.0714    0.0000 C   0  0  0  0  0  0  0  0  0  0  0  0
    5.7063    2.5714    0.0000 C   0  0  0  0  0  0  0  0  0  0  0  0
    7.0054    3.3214    0.0000 C   0  0  0  0  0  0  0  0  0  0  0  0
    8.3045    2.5714    0.0000 C   0  0  0  0  0  0  0  0  0  0  0  0
    8.3045    1.0714    0.0000 N   0  0  0  0  0  0  0  0  0  0  0  0
    7.0054    0.3214    0.0000 C   0  0  0  0  0  0  0  0  0  0  0  0
  1  2  1  0  0  0  0
  2  3  1  0  0  0  0
  2  4  1  0  0  0  0
  2 12  1  0  0  0  0
  4  5  1  0  0  0  0
  6  5  2  0  0  0  0
  5 11  1  0  0  0  0
  7  6  1  0  0  0  0
  8  7  2  0  0  0  0
  8  9  1  0  0  0  0
 10  8  1  0  0  0  0
 11 10  2  0  0  0  0
 12 13  2  0  0  0  0
 12 14  1  0  0  0  0
 14 15  1  0  0  0  0
 15 16  1  0  0  0  0
 17 16  2  0  0  0  0
 16 21  1  0  0  0  0
 18 17  1  0  0  0  0
 19 18  2  0  0  0  0
 20 19  1  0  0  0  0
 21 20  2  0  0  0  0
M  END
> <Inchi_key>
RARQHAFNGNPQCZ-UHFFFAOYSA-N

> <Source>
Mulliner

> <ID>
HT1487

> <H_MFHB>
0

> <CAS>
31980-29-7

> <Cholestasis>


> <Name>
nicofibrate

> <Class>
0


$$$$