

  -INDIGO-08031710012D

 23 26  0  0  0  0  0  0  0  0999 V2000
    2.9895    5.1779    0.0000 C   0  0  0  0  0  0  0  0  0  0  0  0
    3.7394    3.8788    0.0000 C   0  0  0  0  0  0  0  0  0  0  0  0
    5.2395    3.8788    0.0000 C   0  0  0  0  0  0  0  0  0  0  0  0
    5.9894    2.5798    0.0000 C   0  0  0  0  0  0  0  0  0  0  0  0
    5.2395    1.2807    0.0000 C   0  0  0  0  0  0  0  0  0  0  0  0
    5.9894   -0.0183    0.0000 C   0  0  0  0  0  0  0  0  0  0  0  0
    7.4894   -0.0183    0.0000 C   0  0  0  0  0  0  0  0  0  0  0  0
    8.2394    1.2807    0.0000 C   0  0  0  0  0  0  0  0  0  0  0  0
    9.7394    1.2807    0.0000 O   0  0  0  0  0  0  0  0  0  0  0  0
    7.4894    2.5798    0.0000 C   0  0  0  0  0  0  0  0  0  0  0  0
    3.7394    1.2807    0.0000 C   0  0  0  0  0  0  0  0  0  0  0  0
    2.9895   -0.0183    0.0000 C   0  0  0  0  0  0  0  0  0  0  0  0
    1.4894   -0.0183    0.0000 C   0  0  0  0  0  0  0  0  0  0  0  0
    0.7393    1.2807    0.0000 C   0  0  0  0  0  0  0  0  0  0  0  0
   -0.1840    0.0987    0.0000 C   0  0  0  0  0  0  0  0  0  0  0  0
    1.4894    2.5798    0.0000 C   0  0  0  0  0  0  0  0  0  0  0  0
    0.4857    3.6945    0.0000 C   0  0  0  0  0  0  0  0  0  0  0  0
   -0.8846    3.0844    0.0000 C   0  0  0  0  0  0  0  0  0  0  0  0
   -0.7278    1.5926    0.0000 C   0  0  0  0  0  0  0  0  0  0  0  0
   -1.1538    0.1544    0.0000 O   0  0  0  0  0  0  0  0  0  0  0  0
   -2.2026    1.3193    0.0000 C   0  0  0  0  0  0  0  0  0  0  0  0
   -3.6775    1.0459    0.0000 C   0  0  0  0  0  0  0  0  0  0  0  0
    2.9895    2.5798    0.0000 C   0  0  0  0  0  0  0  0  0  0  0  0
  1  2  1  0  0  0  0
  3  2  1  0  0  0  0
  2 23  1  0  0  0  0
  4  3  1  0  0  0  0
  4  5  2  0  0  0  0
 10  4  1  0  0  0  0
  5  6  1  0  0  0  0
 11  5  1  0  0  0  0
  6  7  1  0  0  0  0
  7  8  1  0  0  0  0
  8  9  2  0  0  0  0
  8 10  1  0  0  0  0
 12 11  1  0  0  0  0
 11 23  1  0  0  0  0
 13 12  1  0  0  0  0
 14 13  1  0  0  0  0
 14 15  1  0  0  0  0
 14 16  1  0  0  0  0
 19 14  1  0  0  0  0
 16 17  1  0  0  0  0
 23 16  1  0  0  0  0
 17 18  1  0  0  0  0
 18 19  1  0  0  0  0
 19 20  1  0  0  0  0
 19 21  1  0  0  0  0
 21 22  3  0  0  0  0
M  END
> <Inchi_key>
WZDGZWOAQTVYBX-UHFFFAOYSA-N

> <Source>
Mulliner

> <ID>
HT2055

> <H_MFHB>
0

> <CAS>


> <Cholestasis>


> <Name>
tibolone

> <Class>
0


$$$$