

  -INDIGO-08031710012D

 21 23  0  0  0  0  0  0  0  0999 V2000
    1.5689    5.8554    0.0000 O   0  0  0  0  0  0  0  0  0  0  0  0
    2.8679    5.1054    0.0000 C   0  0  0  0  0  0  0  0  0  0  0  0
    2.8679    3.6053    0.0000 C   0  0  0  0  0  0  0  0  0  0  0  0
    1.5689    2.8554    0.0000 C   0  0  0  0  0  0  0  0  0  0  0  0
    1.5689    1.3554    0.0000 C   0  0  0  0  0  0  0  0  0  0  0  0
    0.8189    0.0563    0.0000 C   0  0  0  0  0  0  0  0  0  0  0  0
    2.1181   -0.6937    0.0000 C   0  0  0  0  0  0  0  0  0  0  0  0
    2.8679    0.6054    0.0000 C   0  0  0  0  0  0  0  0  0  0  0  0
    4.1669    1.3554    0.0000 C   0  0  0  0  0  0  0  0  0  0  0  0
    4.1669    2.8554    0.0000 C   0  0  0  0  0  0  0  0  0  0  0  0
    5.4661    0.6054    0.0000 N   0  0  0  0  0  0  0  0  0  0  0  0
    6.7651    1.3554    0.0000 C   0  0  0  0  0  0  0  0  0  0  0  0
    8.0641    0.6054    0.0000 C   0  0  0  0  0  0  0  0  0  0  0  0
    8.0641   -0.8946    0.0000 O   0  0  0  0  0  0  0  0  0  0  0  0
    9.3633    1.3554    0.0000 N   0  0  0  0  0  0  0  0  0  0  0  0
    9.5201    2.8471    0.0000 C   0  0  0  0  0  0  0  0  0  0  0  0
   10.9872    3.1590    0.0000 C   0  0  0  0  0  0  0  0  0  0  0  0
   11.7372    1.8600    0.0000 C   0  0  0  0  0  0  0  0  0  0  0  0
   10.7334    0.7452    0.0000 C   0  0  0  0  0  0  0  0  0  0  0  0
   11.0455   -0.7221    0.0000 C   0  0  0  0  0  0  0  0  0  0  0  0
   11.3572   -2.1892    0.0000 N   0  0  0  0  0  0  0  0  0  0  0  0
  1  2  1  0  0  0  0
  2  3  1  0  0  0  0
  4  3  1  0  0  0  0
  3 10  1  0  0  0  0
  5  4  1  0  0  0  0
  6  5  1  0  0  0  0
  5  8  1  0  0  0  0
  7  6  1  0  0  0  0
  8  7  1  0  0  0  0
  9  8  1  0  0  0  0
 10  9  1  0  0  0  0
  9 11  1  0  0  0  0
 11 12  1  0  0  0  0
 12 13  1  0  0  0  0
 13 14  2  0  0  0  0
 13 15  1  0  0  0  0
 16 15  1  0  0  0  0
 15 19  1  0  0  0  0
 17 16  1  0  0  0  0
 18 17  1  0  0  0  0
 19 18  1  0  0  0  0
 19 20  1  0  0  0  0
 20 21  3  0  0  0  0
M  END
> <Inchi_key>
PJBNGHJQIXPVNG-UHFFFAOYSA-N

> <Source>
Mulliner

> <ID>
HT2179

> <H_MFHB>
0

> <CAS>


> <Cholestasis>


> <Name>
vildagliptin

> <Class>
0


$$$$