

  -INDIGO-08031710012D

 23 26  0  0  0  0  0  0  0  0999 V2000
   -0.4533    0.2863    0.0000 C   0  0  0  0  0  0  0  0  0  0  0  0
   -1.0976    1.6409    0.0000 C   0  0  0  0  0  0  0  0  0  0  0  0
   -0.2469    2.8762    0.0000 C   0  0  0  0  0  0  0  0  0  0  0  0
    0.5131    1.5830    0.0000 C   0  0  0  0  0  0  0  0  0  0  0  0
    2.0131    1.5946    0.0000 C   0  0  0  0  0  0  0  0  0  0  0  0
    2.7730    0.3014    0.0000 C   0  0  0  0  0  0  0  0  0  0  0  0
    2.7530    2.8994    0.0000 C   0  0  0  0  0  0  0  0  0  0  0  0
    1.9931    4.1926    0.0000 C   0  0  0  0  0  0  0  0  0  0  0  0
    2.7330    5.4974    0.0000 C   0  0  0  0  0  0  0  0  0  0  0  0
    4.2328    5.5090    0.0000 C   0  0  0  0  0  0  0  0  0  0  0  0
    4.9929    4.2158    0.0000 C   0  0  0  0  0  0  0  0  0  0  0  0
    6.4930    4.2274    0.0000 C   0  0  0  0  0  0  0  0  0  0  0  0
    7.2529    2.9342    0.0000 C   0  0  0  0  0  0  0  0  0  0  0  0
    6.5130    1.6294    0.0000 C   0  0  0  0  0  0  0  0  0  0  0  0
    5.0130    1.6178    0.0000 C   0  0  0  0  0  0  0  0  0  0  0  0
    4.2530    2.9110    0.0000 C   0  0  0  0  0  0  0  0  0  0  0  0
    0.4930    4.1810    0.0000 C   0  0  0  0  0  0  0  0  0  0  0  0
   -0.5192    5.2879    0.0000 C   0  0  0  0  0  0  0  0  0  0  0  0
   -1.8849    4.6672    0.0000 C   0  0  0  0  0  0  0  0  0  0  0  0
   -1.7165    3.1767    0.0000 C   0  0  0  0  0  0  0  0  0  0  0  0
   -2.1940    1.7547    0.0000 O   0  0  0  0  0  0  0  0  0  0  0  0
   -3.1962    2.9306    0.0000 C   0  0  0  0  0  0  0  0  0  0  0  0
   -4.6758    2.6845    0.0000 C   0  0  0  0  0  0  0  0  0  0  0  0
  1  2  1  0  0  0  0
  2  3  1  0  0  0  0
  4  3  1  0  0  0  0
 17  3  1  0  0  0  0
  3 20  1  0  0  0  0
  5  4  1  0  0  0  0
  5  6  2  0  0  0  0
  7  5  1  0  0  0  0
  7  8  1  0  0  0  0
 16  7  1  0  0  0  0
  8  9  1  0  0  0  0
 17  8  1  0  0  0  0
  9 10  1  0  0  0  0
 10 11  1  0  0  0  0
 12 11  2  0  0  0  0
 11 16  1  0  0  0  0
 13 12  1  0  0  0  0
 14 13  1  0  0  0  0
 15 14  1  0  0  0  0
 16 15  1  0  0  0  0
 18 17  1  0  0  0  0
 19 18  1  0  0  0  0
 20 19  1  0  0  0  0
 20 21  1  0  0  0  0
 20 22  1  0  0  0  0
 22 23  3  0  0  0  0
M  END
> <Inchi_key>
RPLCPCMSCLEKRS-UHFFFAOYSA-N

> <Source>
Mulliner

> <ID>
HT0615

> <H_MFHB>
0

> <CAS>


> <Cholestasis>


> <Name>
desogestrel

> <Class>
0


$$$$