
  -INDIGO-08031710012D

 20 22  0  0  0  0  0  0  0  0999 V2000
   13.0621   -4.1561    0.0000 C   0  0  0  0  0  0  0  0  0  0  0  0
   11.7678   -4.9142    0.0000 N   0  0  0  0  0  0  0  0  0  0  0  0
   10.4639   -4.1724    0.0000 C   0  0  0  0  0  0  0  0  0  0  0  0
   10.4546   -2.6724    0.0000 O   0  0  0  0  0  0  0  0  0  0  0  0
    9.1698   -4.9305    0.0000 O   0  0  0  0  0  0  0  0  0  0  0  0
    7.8659   -4.1887    0.0000 C   0  0  0  0  0  0  0  0  0  0  0  0
    7.8566   -2.6887    0.0000 C   0  0  0  0  0  0  0  0  0  0  0  0
    6.5529   -1.9469    0.0000 C   0  0  0  0  0  0  0  0  0  0  0  0
    5.2586   -2.7050    0.0000 C   0  0  0  0  0  0  0  0  0  0  0  0
    3.8290   -2.2505    0.0000 N   0  0  0  0  0  0  0  0  0  0  0  0
    3.3567   -0.8268    0.0000 C   0  0  0  0  0  0  0  0  0  0  0  0
    2.9551   -3.4695    0.0000 C   0  0  0  0  0  0  0  0  0  0  0  0
    1.5314   -3.9420    0.0000 N   0  0  0  0  0  0  0  0  0  0  0  0
    0.3124   -3.0679    0.0000 C   0  0  0  0  0  0  0  0  0  0  0  0
    1.5408   -5.4419    0.0000 C   0  0  0  0  0  0  0  0  0  0  0  0
    2.9703   -5.8965    0.0000 C   0  0  0  0  0  0  0  0  0  0  0  0
    3.8442   -4.6775    0.0000 C   0  0  0  0  0  0  0  0  0  0  0  0
    4.7125   -5.9008    0.0000 C   0  0  0  0  0  0  0  0  0  0  0  0
    5.2679   -4.2050    0.0000 C   0  0  0  0  0  0  0  0  0  0  0  0
    6.5718   -4.9468    0.0000 C   0  0  0  0  0  0  0  0  0  0  0  0
  1  2  1  0  0  0  0
  2  3  1  0  0  0  0
  3  4  2  0  0  0  0
  3  5  1  0  0  0  0
  5  6  1  0  0  0  0
  7  6  2  0  0  0  0
  6 20  1  0  0  0  0
  8  7  1  0  0  0  0
  9  8  2  0  0  0  0
 10  9  1  0  0  0  0
  9 19  1  0  0  0  0
 10 11  1  0  0  0  0
 12 10  1  0  0  0  0
 13 12  1  0  0  0  0
 12 17  1  0  0  0  0
 13 14  1  0  0  0  0
 15 13  1  0  0  0  0
 16 15  1  0  0  0  0
 17 16  1  0  0  0  0
 17 18  1  0  0  0  0
 19 17  1  0  0  0  0
 20 19  2  0  0  0  0
M  END
> <Inchi_key>
PIJVFDBKTWXHHD-UHFFFAOYSA-N

> <Source>
Mulliner , Kotsampasakou

> <ID>
EK0195;HT1666

> <H_MFHB>
0

> <CAS>


> <Cholestasis>
0

> <Name>
physostigmine;eserine

> <Class>
0

$$$$