

  -INDIGO-08031710012D

 21 22  0  0  0  0  0  0  0  0999 V2000
   12.5353    4.9303    0.0000 C   0  0  0  0  0  0  0  0  0  0  0  0
   11.2364    5.6804    0.0000 O   0  0  0  0  0  0  0  0  0  0  0  0
    9.9373    4.9303    0.0000 C   0  0  0  0  0  0  0  0  0  0  0  0
    8.6382    5.6804    0.0000 C   0  0  0  0  0  0  0  0  0  0  0  0
    7.3393    4.9303    0.0000 C   0  0  0  0  0  0  0  0  0  0  0  0
    7.3393    3.4303    0.0000 C   0  0  0  0  0  0  0  0  0  0  0  0
    6.0402    2.6804    0.0000 C   0  0  0  0  0  0  0  0  0  0  0  0
    4.7411    3.4303    0.0000 N   0  0  0  0  0  0  0  0  0  0  0  0
    4.7411    4.9303    0.0000 C   0  0  0  0  0  0  0  0  0  0  0  0
    3.4422    5.6804    0.0000 C   0  0  0  0  0  0  0  0  0  0  0  0
    3.4422    7.1804    0.0000 N   0  0  0  0  0  0  0  0  0  0  0  0
    4.7411    7.9303    0.0000 C   0  0  0  0  0  0  0  0  0  0  0  0
    2.1429    7.9303    0.0000 C   0  0  0  0  0  0  0  0  0  0  0  0
    3.4422    2.6804    0.0000 C   0  0  0  0  0  0  0  0  0  0  0  0
    2.1429    3.4303    0.0000 C   0  0  0  0  0  0  0  0  0  0  0  0
    0.8440    2.6804    0.0000 C   0  0  0  0  0  0  0  0  0  0  0  0
    0.8440    1.1804    0.0000 C   0  0  0  0  0  0  0  0  0  0  0  0
    2.1429    0.4303    0.0000 C   0  0  0  0  0  0  0  0  0  0  0  0
    3.4422    1.1804    0.0000 N   0  0  0  0  0  0  0  0  0  0  0  0
    8.6382    2.6804    0.0000 C   0  0  0  0  0  0  0  0  0  0  0  0
    9.9373    3.4303    0.0000 C   0  0  0  0  0  0  0  0  0  0  0  0
  1  2  1  0  0  0  0
  2  3  1  0  0  0  0
  4  3  2  0  0  0  0
  3 21  1  0  0  0  0
  5  4  1  0  0  0  0
  6  5  2  0  0  0  0
  6  7  1  0  0  0  0
 20  6  1  0  0  0  0
  7  8  1  0  0  0  0
  8  9  1  0  0  0  0
  8 14  1  0  0  0  0
  9 10  1  0  0  0  0
 10 11  1  0  0  0  0
 11 12  1  0  0  0  0
 11 13  1  0  0  0  0
 15 14  2  0  0  0  0
 14 19  1  0  0  0  0
 16 15  1  0  0  0  0
 17 16  2  0  0  0  0
 18 17  1  0  0  0  0
 19 18  2  0  0  0  0
 21 20  2  0  0  0  0
M  END
> <Inchi_key>
YECBIJXISLIIDS-UHFFFAOYSA-N

> <Source>
Mulliner

> <ID>
HT1312

> <H_MFHB>
0

> <CAS>
59-33-6

> <Cholestasis>


> <Name>
mepyramine

> <Class>
0


$$$$