
  -INDIGO-08031710012D

 37 40  0  0  0  0  0  0  0  0999 V2000
    0.0716  -10.5197    0.0000 C   0  0  0  0  0  0  0  0  0  0  0  0
    1.5714  -10.4994    0.0000 O   0  0  0  0  0  0  0  0  0  0  0  0
    2.3037   -9.1902    0.0000 C   0  0  0  0  0  0  0  0  0  0  0  0
    3.8035   -9.1697    0.0000 C   0  0  0  0  0  0  0  0  0  0  0  0
    4.5359   -7.8606    0.0000 O   0  0  0  0  0  0  0  0  0  0  0  0
    6.0357   -7.8403    0.0000 C   0  0  0  0  0  0  0  0  0  0  0  0
    6.7678   -6.5312    0.0000 C   0  0  0  0  0  0  0  0  0  0  0  0
    8.2678   -6.5108    0.0000 C   0  0  0  0  0  0  0  0  0  0  0  0
    9.0353   -7.7994    0.0000 C   0  0  0  0  0  0  0  0  0  0  0  0
   10.2137   -8.7275    0.0000 C   0  0  0  0  0  0  0  0  0  0  0  0
    9.6954  -10.1350    0.0000 C   0  0  0  0  0  0  0  0  0  0  0  0
    8.1966  -10.0770    0.0000 C   0  0  0  0  0  0  0  0  0  0  0  0
    7.7886   -8.6334    0.0000 C   0  0  0  0  0  0  0  0  0  0  0  0
    9.8129   -6.5167    0.0000 C   0  0  0  0  0  0  0  0  0  0  0  0
    9.0906   -5.2020    0.0000 O   0  0  0  0  0  0  0  0  0  0  0  0
   11.3124   -6.5486    0.0000 N   0  0  0  0  0  0  0  0  0  0  0  0
   12.0900   -5.2659    0.0000 C   0  0  0  0  0  0  0  0  0  0  0  0
   11.3680   -3.9512    0.0000 C   0  0  0  0  0  0  0  0  0  0  0  0
   12.1455   -2.6685    0.0000 C   0  0  0  0  0  0  0  0  0  0  0  0
   13.6451   -2.7005    0.0000 C   0  0  0  0  0  0  0  0  0  0  0  0
   14.3671   -4.0151    0.0000 C   0  0  0  0  0  0  0  0  0  0  0  0
   13.5898   -5.2979    0.0000 C   0  0  0  0  0  0  0  0  0  0  0  0
   14.4226   -1.4177    0.0000 C   0  0  0  0  0  0  0  0  0  0  0  0
   15.9222   -1.4495    0.0000 O   0  0  0  0  0  0  0  0  0  0  0  0
   13.7004   -0.1029    0.0000 O   0  0  0  0  0  0  0  0  0  0  0  0
    6.0003   -5.2426    0.0000 C   0  0  0  0  0  0  0  0  0  0  0  0
    6.7326   -3.9334    0.0000 O   0  0  0  0  0  0  0  0  0  0  0  0
    4.5005   -5.2629    0.0000 O   0  0  0  0  0  0  0  0  0  0  0  0
    3.7330   -3.9741    0.0000 C   0  0  0  0  0  0  0  0  0  0  0  0
    4.4651   -2.6650    0.0000 C   0  0  0  0  0  0  0  0  0  0  0  0
    3.6974   -1.3762    0.0000 C   0  0  0  0  0  0  0  0  0  0  0  0
    2.1978   -1.3968    0.0000 C   0  0  0  0  0  0  0  0  0  0  0  0
    1.1789   -0.2959    0.0000 C   0  0  0  0  0  0  0  0  0  0  0  0
   -0.1830   -0.9244    0.0000 C   0  0  0  0  0  0  0  0  0  0  0  0
   -0.0058   -2.4140    0.0000 C   0  0  0  0  0  0  0  0  0  0  0  0
    1.4655   -2.7059    0.0000 C   0  0  0  0  0  0  0  0  0  0  0  0
    2.2330   -3.9946    0.0000 C   0  0  0  0  0  0  0  0  0  0  0  0
  1  2  1  0  0  0  0
  2  3  1  0  0  0  0
  3  4  1  0  0  0  0
  4  5  1  0  0  0  0
  5  6  1  0  0  0  0
  6  7  1  0  0  0  0
  7  8  1  0  0  0  0
  7 26  1  0  0  0  0
  8  9  1  0  0  0  0
 10  9  1  0  0  0  0
  9 13  1  0  0  0  0
  9 14  1  0  0  0  0
 11 10  1  0  0  0  0
 12 11  1  0  0  0  0
 13 12  1  0  0  0  0
 14 15  2  0  0  0  0
 14 16  1  0  0  0  0
 16 17  1  0  0  0  0
 18 17  1  0  0  0  0
 17 22  1  0  0  0  0
 19 18  1  0  0  0  0
 20 19  1  0  0  0  0
 21 20  1  0  0  0  0
 20 23  1  0  0  0  0
 22 21  1  0  0  0  0
 23 24  2  0  0  0  0
 23 25  1  0  0  0  0
 26 27  2  0  0  0  0
 26 28  1  0  0  0  0
 28 29  1  0  0  0  0
 30 29  2  0  0  0  0
 29 37  1  0  0  0  0
 31 30  1  0  0  0  0
 32 31  2  0  0  0  0
 33 32  1  0  0  0  0
 32 36  1  0  0  0  0
 34 33  1  0  0  0  0
 35 34  1  0  0  0  0
 36 35  1  0  0  0  0
 37 36  2  0  0  0  0
M  END
> <Inchi_key>
ZTWZVMIYIIVABD-UHFFFAOYSA-N

> <Source>
Mulliner

> <ID>
HT0362

> <H_MFHB>
0

> <CAS>


> <Cholestasis>


> <Name>
candoxatril

> <Class>
0

$$$$