
  -INDIGO-08031710012D

 23 27  0  0  0  0  0  0  0  0999 V2000
    3.4215    3.6374    0.0000 O   0  0  0  0  0  0  0  0  0  0  0  0
    4.1508    2.3266    0.0000 C   0  0  0  0  0  0  0  0  0  0  0  0
    5.5855    2.3024    0.0000 C   0  0  0  0  0  0  0  0  0  0  0  0
    6.2850    1.0479    0.0000 C   0  0  0  0  0  0  0  0  0  0  0  0
    5.5431   -0.1745    0.0000 C   0  0  0  0  0  0  0  0  0  0  0  0
    6.2418   -1.4379    0.0000 C   0  0  0  0  0  0  0  0  0  0  0  0
    5.4919   -2.6626    0.0000 C   0  0  0  0  0  0  0  0  0  0  0  0
    4.0518   -2.6359    0.0000 C   0  0  0  0  0  0  0  0  0  0  0  0
    3.3146   -3.8554    0.0000 C   0  0  0  0  0  0  0  0  0  0  0  0
    1.8828   -3.8314    0.0000 C   0  0  0  0  0  0  0  0  0  0  0  0
    1.1918   -2.5777    0.0000 C   0  0  0  0  0  0  0  0  0  0  0  0
   -0.3079   -2.5486    0.0000 O   0  0  0  0  0  0  0  0  0  0  0  0
    1.9328   -1.3473    0.0000 C   0  0  0  0  0  0  0  0  0  0  0  0
    1.7713    0.4377    0.0000 O   0  0  0  0  0  0  0  0  0  0  0  0
    3.4159    1.0968    0.0000 C   0  0  0  0  0  0  0  0  0  0  0  0
    4.1084   -0.1503    0.0000 C   0  0  0  0  0  0  0  0  0  0  0  0
    4.4495   -1.5674    0.0000 C   0  0  0  0  0  0  0  0  0  0  0  0
    6.3644   -2.5497    0.0000 C   0  0  0  0  0  0  0  0  0  0  0  0
    7.6248   -1.8556    0.0000 N   0  0  0  0  0  0  0  0  0  0  0  0
    9.1166   -1.6978    0.0000 C   0  0  0  0  0  0  0  0  0  0  0  0
    9.9989   -2.9107    0.0000 C   0  0  0  0  0  0  0  0  0  0  0  0
   11.4907   -2.7529    0.0000 C   0  0  0  0  0  0  0  0  0  0  0  0
    3.3610   -1.3814    0.0000 C   0  0  0  0  0  0  0  0  0  0  0  0
  1  2  1  0  0  0  0
  3  2  1  0  0  0  0
  2 15  1  0  0  0  0
  4  3  2  0  0  0  0
  5  4  1  0  0  0  0
  6  5  1  0  0  0  0
  5 16  1  0  0  0  0
  7  6  1  0  0  0  0
  6 19  1  0  0  0  0
  8  7  1  0  0  0  0
  9  8  2  0  0  0  0
  8 23  1  0  0  0  0
 10  9  1  0  0  0  0
 11 10  2  0  0  0  0
 11 12  1  0  0  0  0
 13 11  1  0  0  0  0
 13 14  1  0  0  0  0
 23 13  2  0  0  0  0
 14 15  1  0  0  0  0
 15 16  1  0  0  0  0
 17 16  1  0  0  0  0
 16 23  1  0  0  0  0
 18 17  1  0  0  0  0
 19 18  1  0  0  0  0
 19 20  1  0  0  0  0
 20 21  1  0  0  0  0
 21 22  2  0  0  0  0
M  END
> <Inchi_key>
UIQMVEYFGZJHCZ-UHFFFAOYSA-N

> <Source>
Mulliner

> <ID>
HT1458

> <H_MFHB>
0

> <CAS>


> <Cholestasis>


> <Name>
nalorphine

> <Class>
0

$$$$