
  -INDIGO-08031709442D

 22 25  0  0  0  0  0  0  0  0999 V2000
    0.5336    3.3161    0.0000 O   0  0  0  0  0  0  0  0  0  0  0  0
   -0.2577    2.0647    0.0000 C   0  0  0  0  0  0  0  0  0  0  0  0
   -0.3931    0.6324    0.0000 C   0  0  0  0  0  0  0  0  0  0  0  0
   -1.6965    0.4425    0.0000 N   0  0  0  0  0  0  0  0  0  0  0  0
   -0.7324    1.6161    0.0000 C   0  0  0  0  0  0  0  0  0  0  0  0
    0.8225    0.7220    0.0000 C   0  0  0  0  0  0  0  0  0  0  0  0
    2.0453    0.9331    0.0000 C   0  0  0  0  0  0  0  0  0  0  0  0
    3.3430    1.6854    0.0000 O   0  0  0  0  0  0  0  0  0  0  0  0
    4.6433    0.9376    0.0000 C   0  0  0  0  0  0  0  0  0  0  0  0
    4.6458   -0.5624    0.0000 O   0  0  0  0  0  0  0  0  0  0  0  0
    5.9412    1.6898    0.0000 C   0  0  0  0  0  0  0  0  0  0  0  0
    5.9384    3.1898    0.0000 C   0  0  0  0  0  0  0  0  0  0  0  0
    7.2363    3.9420    0.0000 O   0  0  0  0  0  0  0  0  0  0  0  0
    7.2414    0.9420    0.0000 C   0  0  0  0  0  0  0  0  0  0  0  0
    8.5391    1.6943    0.0000 C   0  0  0  0  0  0  0  0  0  0  0  0
    9.8396    0.9465    0.0000 C   0  0  0  0  0  0  0  0  0  0  0  0
    9.8421   -0.5535    0.0000 C   0  0  0  0  0  0  0  0  0  0  0  0
    8.5442   -1.3057    0.0000 C   0  0  0  0  0  0  0  0  0  0  0  0
    7.2440   -0.5580    0.0000 C   0  0  0  0  0  0  0  0  0  0  0  0
    1.0734   -0.2418    0.0000 C   0  0  0  0  0  0  0  0  0  0  0  0
   -0.9023    3.2327    0.0000 C   0  0  0  0  0  0  0  0  0  0  0  0
   -3.0026   -0.2950    0.0000 C   0  0  0  0  0  0  0  0  0  0  0  0
  2  1  1  0  0  0  0
  1 21  1  0  0  0  0
  3  2  1  0  0  0  0
  2 21  1  0  0  0  0
  3  4  1  0  0  0  0
 20  3  1  0  0  0  0
  4  5  1  0  0  0  0
  4 22  1  0  0  0  0
  5  6  1  0  0  0  0
 21  5  1  0  0  0  0
  6  7  1  0  0  0  0
  7  8  1  0  0  0  0
  7 20  1  0  0  0  0
  8  9  1  0  0  0  0
  9 10  2  0  0  0  0
  9 11  1  0  0  0  0
 11 12  1  0  0  0  0
 11 14  1  0  0  0  0
 12 13  1  0  0  0  0
 15 14  2  0  0  0  0
 14 19  1  0  0  0  0
 16 15  1  0  0  0  0
 17 16  2  0  0  0  0
 18 17  1  0  0  0  0
 19 18  2  0  0  0  0
M  END
> <Inchi_key>
STECJAGHUSJQJN-UHFFFAOYSA-N

> <Source>
Kotsampasakou

> <ID>
EK0478

> <H_MFHB>


> <CAS>


> <Cholestasis>
0

> <Name>
scopolamine

> <Class>
0

$$$$