

  -INDIGO-08031710012D

 19 21  0  0  0  0  0  0  0  0999 V2000
   14.2488   -3.6940    0.0000 C   0  0  0  0  0  0  0  0  0  0  0  0
   12.9379   -2.9652    0.0000 C   0  0  0  0  0  0  0  0  0  0  0  0
   11.6511   -3.7363    0.0000 C   0  0  0  0  0  0  0  0  0  0  0  0
   11.6756   -5.2361    0.0000 O   0  0  0  0  0  0  0  0  0  0  0  0
   10.3400   -3.0075    0.0000 N   0  0  0  0  0  0  0  0  0  0  0  0
    9.0535   -3.7785    0.0000 C   0  0  0  0  0  0  0  0  0  0  0  0
    7.7424   -3.0498    0.0000 C   0  0  0  0  0  0  0  0  0  0  0  0
    6.4556   -3.8208    0.0000 C   0  0  0  0  0  0  0  0  0  0  0  0
    6.3231   -5.3149    0.0000 C   0  0  0  0  0  0  0  0  0  0  0  0
    4.8613   -5.6506    0.0000 C   0  0  0  0  0  0  0  0  0  0  0  0
    4.0900   -4.3640    0.0000 C   0  0  0  0  0  0  0  0  0  0  0  0
    2.6181   -4.0760    0.0000 C   0  0  0  0  0  0  0  0  0  0  0  0
    2.1314   -2.6572    0.0000 C   0  0  0  0  0  0  0  0  0  0  0  0
    3.1167   -1.5263    0.0000 C   0  0  0  0  0  0  0  0  0  0  0  0
    2.9357   -0.0372    0.0000 O   0  0  0  0  0  0  0  0  0  0  0  0
    4.2960    0.5951    0.0000 C   0  0  0  0  0  0  0  0  0  0  0  0
    5.3178   -0.5031    0.0000 C   0  0  0  0  0  0  0  0  0  0  0  0
    4.5889   -1.8142    0.0000 C   0  0  0  0  0  0  0  0  0  0  0  0
    5.0756   -3.2331    0.0000 C   0  0  0  0  0  0  0  0  0  0  0  0
  1  2  1  0  0  0  0
  2  3  1  0  0  0  0
  3  4  2  0  0  0  0
  3  5  1  0  0  0  0
  5  6  1  0  0  0  0
  6  7  1  0  0  0  0
  7  8  1  0  0  0  0
  9  8  1  0  0  0  0
  8 19  1  0  0  0  0
 10  9  1  0  0  0  0
 11 10  1  0  0  0  0
 12 11  2  0  0  0  0
 11 19  1  0  0  0  0
 13 12  1  0  0  0  0
 14 13  2  0  0  0  0
 15 14  1  0  0  0  0
 14 18  1  0  0  0  0
 16 15  1  0  0  0  0
 17 16  1  0  0  0  0
 18 17  1  0  0  0  0
 19 18  2  0  0  0  0
M  END
> <Inchi_key>
YLXDSYKOBKBWJQ-UHFFFAOYSA-N

> <Source>
Mulliner , Kotsampasakou

> <ID>
EK0463;HT1797

> <H_MFHB>
0

> <CAS>


> <Cholestasis>
0

> <Name>
ramelteon

> <Class>
0


$$$$