

  -INDIGO-08031710012D

 32 34  0  0  0  0  0  0  0  0999 V2000
   17.5312    2.5981    0.0000 O   0  0  0  0  0  0  0  0  0  0  0  0
   18.2812    1.2989    0.0000 C   0  0  0  0  0  0  0  0  0  0  0  0
   19.7814    1.2989    0.0000 N   0  0  0  0  0  0  0  0  0  0  0  0
   17.5312    0.0001    0.0000 C   0  0  0  0  0  0  0  0  0  0  0  0
   16.0311    0.0001    0.0000 N   0  0  0  0  0  0  0  0  0  0  0  0
   18.2812   -1.2990    0.0000 C   0  0  0  0  0  0  0  0  0  0  0  0
   15.2814   -1.2990    0.0000 C   0  0  0  0  0  0  0  0  0  0  0  0
   17.5312   -2.5981    0.0000 N   0  0  0  0  0  0  0  0  0  0  0  0
   19.7814   -1.2990    0.0000 N   0  0  0  0  0  0  0  0  0  0  0  0
   13.7812   -1.2990    0.0000 C   0  0  0  0  0  0  0  0  0  0  0  0
   16.0311   -2.5981    0.0000 C   0  0  0  0  0  0  0  0  0  0  0  0
   20.5311    0.0001    0.0000 C   0  0  0  0  0  0  0  0  0  0  0  0
   13.0312   -2.5981    0.0000 N   0  0  0  0  0  0  0  0  0  0  0  0
   22.0312    0.0001    0.0000 N   0  0  0  0  0  0  0  0  0  0  0  0
   11.5311   -2.5981    0.0000 C   0  0  0  0  0  0  0  0  0  0  0  0
   10.7813   -1.2990    0.0000 C   0  0  0  0  0  0  0  0  0  0  0  0
   10.7813   -3.8972    0.0000 C   0  0  0  0  0  0  0  0  0  0  0  0
    9.2812   -1.2990    0.0000 C   0  0  0  0  0  0  0  0  0  0  0  0
    9.2812   -3.8972    0.0000 C   0  0  0  0  0  0  0  0  0  0  0  0
    8.5312   -2.5981    0.0000 C   0  0  0  0  0  0  0  0  0  0  0  0
    7.0311   -2.5981    0.0000 C   0  0  0  0  0  0  0  0  0  0  0  0
    6.2813   -1.2990    0.0000 O   0  0  0  0  0  0  0  0  0  0  0  0
    6.2813   -3.8972    0.0000 N   0  0  0  0  0  0  0  0  0  0  0  0
    4.7812   -3.8972    0.0000 C   0  0  0  0  0  0  0  0  0  0  0  0
    4.0312   -2.5981    0.0000 C   0  0  0  0  0  0  0  0  0  0  0  0
    4.0312   -5.1962    0.0000 C   0  0  0  0  0  0  0  0  0  0  0  0
    2.5310   -2.5981    0.0000 C   0  0  0  0  0  0  0  0  0  0  0  0
    4.7812   -6.4952    0.0000 O   0  0  0  0  0  0  0  0  0  0  0  0
    2.5310   -5.1962    0.0000 O   0  0  0  0  0  0  0  0  0  0  0  0
    1.7813   -1.2990    0.0000 C   0  0  0  0  0  0  0  0  0  0  0  0
    2.5310    0.0001    0.0000 O   0  0  0  0  0  0  0  0  0  0  0  0
    0.2812   -1.2990    0.0000 O   0  0  0  0  0  0  0  0  0  0  0  0
  1  2  2  0  0  0  0
  3  2  1  0  0  0  0
  2  4  1  0  0  0  0
  5  4  2  0  0  0  0
  4  6  1  0  0  0  0
  7  5  1  0  0  0  0
  6  8  2  0  0  0  0
  6  9  1  0  0  0  0
  7 10  1  0  0  0  0
 11  7  2  0  0  0  0
  8 11  1  0  0  0  0
  9 12  2  0  0  0  0
 10 13  1  0  0  0  0
 12 14  1  0  0  0  0
 12  3  1  0  0  0  0
 13 15  1  0  0  0  0
 16 15  2  0  0  0  0
 15 17  1  0  0  0  0
 18 16  1  0  0  0  0
 17 19  2  0  0  0  0
 20 18  2  0  0  0  0
 19 20  1  0  0  0  0
 20 21  1  0  0  0  0
 21 22  2  0  0  0  0
 21 23  1  0  0  0  0
 23 24  1  0  0  0  0
 24 25  1  0  0  0  0
 24 26  1  0  0  0  0
 25 27  1  0  0  0  0
 26 28  2  0  0  0  0
 26 29  1  0  0  0  0
 27 30  1  0  0  0  0
 30 31  2  0  0  0  0
 30 32  1  0  0  0  0
M  END
> <Inchi_key>
OVBPIULPVIDEAO-UHFFFAOYSA-N

> <Source>
Mulliner , Kotsampasakou

> <ID>
EK0230;HT0928

> <H_MFHB>
0

> <CAS>
59-30-3

> <Cholestasis>
0

> <Name>
folic acid

> <Class>
0


$$$$