
  -INDIGO-08031710012D

 14 15  0  0  0  0  0  0  0  0999 V2000
    0.4413    0.2549    0.0000 C   0  0  0  0  0  0  0  0  0  0  0  0
   -0.3086   -1.0442    0.0000 N   0  0  0  0  0  0  0  0  0  0  0  0
   -1.8086   -1.0442    0.0000 C   0  0  0  0  0  0  0  0  0  0  0  0
   -2.5586   -2.3432    0.0000 C   0  0  0  0  0  0  0  0  0  0  0  0
   -1.8086   -3.6422    0.0000 C   0  0  0  0  0  0  0  0  0  0  0  0
   -0.3086   -3.6422    0.0000 N   0  0  0  0  0  0  0  0  0  0  0  0
    0.4413   -2.3432    0.0000 C   0  0  0  0  0  0  0  0  0  0  0  0
    1.9415   -2.3432    0.0000 C   0  0  0  0  0  0  0  0  0  0  0  0
    2.6914   -3.6422    0.0000 C   0  0  0  0  0  0  0  0  0  0  0  0
    4.1914   -3.6422    0.0000 C   0  0  0  0  0  0  0  0  0  0  0  0
    5.0731   -2.4287    0.0000 C   0  0  0  0  0  0  0  0  0  0  0  0
    6.4997   -2.8922    0.0000 C   0  0  0  0  0  0  0  0  0  0  0  0
    6.4997   -4.3922    0.0000 C   0  0  0  0  0  0  0  0  0  0  0  0
    5.0731   -4.8558    0.0000 S   0  0  0  0  0  0  0  0  0  0  0  0
  1  2  1  0  0  0  0
  3  2  1  0  0  0  0
  2  7  1  0  0  0  0
  4  3  1  0  0  0  0
  5  4  1  0  0  0  0
  6  5  1  0  0  0  0
  7  6  2  0  0  0  0
  7  8  1  0  0  0  0
  8  9  2  0  0  0  0
  9 10  1  0  0  0  0
 11 10  2  0  0  0  0
 10 14  1  0  0  0  0
 12 11  1  0  0  0  0
 13 12  2  0  0  0  0
 14 13  1  0  0  0  0
M  END
> <Inchi_key>
YSAUAVHXTIETRK-AATRIKPKSA-N

> <Source>
Mulliner , Kotsampasakou

> <ID>
EK0458;HT1773

> <H_MFHB>
0

> <CAS>
15686-83-6

> <Cholestasis>
0

> <Name>
pyrantel

> <Class>
0

$$$$