

  -INDIGO-08031710012D

 23 27  0  0  0  0  0  0  0  0999 V2000
   13.0145   -1.9633    0.0000 C   0  0  0  0  0  0  0  0  0  0  0  0
   11.7205   -2.7219    0.0000 C   0  0  0  0  0  0  0  0  0  0  0  0
   10.4164   -1.9807    0.0000 O   0  0  0  0  0  0  0  0  0  0  0  0
    9.1224   -2.7394    0.0000 C   0  0  0  0  0  0  0  0  0  0  0  0
    9.1334   -4.1716    0.0000 C   0  0  0  0  0  0  0  0  0  0  0  0
    7.8962   -4.8927    0.0000 C   0  0  0  0  0  0  0  0  0  0  0  0
    6.6560   -4.1887    0.0000 C   0  0  0  0  0  0  0  0  0  0  0  0
    5.4130   -4.9161    0.0000 C   0  0  0  0  0  0  0  0  0  0  0  0
    4.1601   -4.2145    0.0000 C   0  0  0  0  0  0  0  0  0  0  0  0
    4.1517   -2.7705    0.0000 C   0  0  0  0  0  0  0  0  0  0  0  0
    2.9068   -2.0671    0.0000 C   0  0  0  0  0  0  0  0  0  0  0  0
    2.9033   -0.6308    0.0000 C   0  0  0  0  0  0  0  0  0  0  0  0
    4.1433    0.0918    0.0000 C   0  0  0  0  0  0  0  0  0  0  0  0
    4.1385    1.5918    0.0000 O   0  0  0  0  0  0  0  0  0  0  0  0
    5.3857   -0.6216    0.0000 C   0  0  0  0  0  0  0  0  0  0  0  0
    7.1419   -0.3932    0.0000 O   0  0  0  0  0  0  0  0  0  0  0  0
    7.8746   -2.0284    0.0000 C   0  0  0  0  0  0  0  0  0  0  0  0
    6.6452   -2.7564    0.0000 C   0  0  0  0  0  0  0  0  0  0  0  0
    5.3915   -2.0480    0.0000 C   0  0  0  0  0  0  0  0  0  0  0  0
    5.7867   -3.4510    0.0000 C   0  0  0  0  0  0  0  0  0  0  0  0
    4.5969   -5.2442    0.0000 C   0  0  0  0  0  0  0  0  0  0  0  0
    3.1579   -5.2551    0.0000 N   0  0  0  0  0  0  0  0  0  0  0  0
    1.7796   -5.8468    0.0000 C   0  0  0  0  0  0  0  0  0  0  0  0
  1  2  1  0  0  0  0
  2  3  1  0  0  0  0
  3  4  1  0  0  0  0
  5  4  2  0  0  0  0
  4 17  1  0  0  0  0
  6  5  1  0  0  0  0
  7  6  2  0  0  0  0
  8  7  1  0  0  0  0
  7 18  1  0  0  0  0
  9  8  1  0  0  0  0
  9 10  1  0  0  0  0
 22  9  1  0  0  0  0
 10 11  1  0  0  0  0
 10 19  1  0  0  0  0
 11 12  2  0  0  0  0
 12 13  1  0  0  0  0
 13 14  1  0  0  0  0
 13 15  1  0  0  0  0
 15 16  1  0  0  0  0
 15 19  1  0  0  0  0
 16 17  1  0  0  0  0
 17 18  2  0  0  0  0
 18 19  1  0  0  0  0
 19 20  1  0  0  0  0
 20 21  1  0  0  0  0
 21 22  1  0  0  0  0
 22 23  1  0  0  0  0
M  END
> <Inchi_key>
OGDVEMNWJVYAJL-UHFFFAOYSA-N

> <Source>
Mulliner

> <ID>
HT0822

> <H_MFHB>
0

> <CAS>


> <Cholestasis>


> <Name>
ethylmorphine

> <Class>
0


$$$$