
  -INDIGO-08031710012D

 42 45  0  0  0  0  0  0  0  0999 V2000
    1.1712   -7.1726    0.0000 N   0  0  0  0  0  0  0  0  0  0  0  0
    1.8296   -5.8248    0.0000 C   0  0  0  0  0  0  0  0  0  0  0  0
    0.9917   -4.5808    0.0000 C   0  0  0  0  0  0  0  0  0  0  0  0
    1.6501   -3.2330    0.0000 O   0  0  0  0  0  0  0  0  0  0  0  0
    0.8119   -1.9889    0.0000 C   0  0  0  0  0  0  0  0  0  0  0  0
    1.4703   -0.6411    0.0000 O   0  0  0  0  0  0  0  0  0  0  0  0
    2.9669   -0.5373    0.0000 C   0  0  0  0  0  0  0  0  0  0  0  0
    3.9304   -1.6870    0.0000 C   0  0  0  0  0  0  0  0  0  0  0  0
    3.5665   -3.1423    0.0000 O   0  0  0  0  0  0  0  0  0  0  0  0
    5.3215   -1.1259    0.0000 C   0  0  0  0  0  0  0  0  0  0  0  0
    6.5930   -1.9215    0.0000 O   0  0  0  0  0  0  0  0  0  0  0  0
    7.9177   -1.2182    0.0000 C   0  0  0  0  0  0  0  0  0  0  0  0
    7.9712    0.2807    0.0000 C   0  0  0  0  0  0  0  0  0  0  0  0
    6.6996    1.0765    0.0000 O   0  0  0  0  0  0  0  0  0  0  0  0
    9.2959    0.9842    0.0000 C   0  0  0  0  0  0  0  0  0  0  0  0
    9.3493    2.4833    0.0000 N   0  0  0  0  0  0  0  0  0  0  0  0
   10.5674    0.1886    0.0000 C   0  0  0  0  0  0  0  0  0  0  0  0
   10.5142   -1.3105    0.0000 C   0  0  0  0  0  0  0  0  0  0  0  0
   11.7857   -2.1061    0.0000 N   0  0  0  0  0  0  0  0  0  0  0  0
    9.1895   -2.0140    0.0000 C   0  0  0  0  0  0  0  0  0  0  0  0
    9.1360   -3.5129    0.0000 O   0  0  0  0  0  0  0  0  0  0  0  0
   10.4076   -4.3087    0.0000 C   0  0  0  0  0  0  0  0  0  0  0  0
   11.7326   -3.6052    0.0000 O   0  0  0  0  0  0  0  0  0  0  0  0
   13.0041   -4.4008    0.0000 C   0  0  0  0  0  0  0  0  0  0  0  0
   14.3291   -3.6974    0.0000 C   0  0  0  0  0  0  0  0  0  0  0  0
   15.6006   -4.4930    0.0000 O   0  0  0  0  0  0  0  0  0  0  0  0
   12.9509   -5.8999    0.0000 C   0  0  0  0  0  0  0  0  0  0  0  0
   14.2224   -6.6955    0.0000 O   0  0  0  0  0  0  0  0  0  0  0  0
   11.6262   -6.6034    0.0000 C   0  0  0  0  0  0  0  0  0  0  0  0
   11.5727   -8.1023    0.0000 O   0  0  0  0  0  0  0  0  0  0  0  0
   10.3544   -5.8076    0.0000 C   0  0  0  0  0  0  0  0  0  0  0  0
    9.0297   -6.5109    0.0000 N   0  0  0  0  0  0  0  0  0  0  0  0
    5.2176    0.3706    0.0000 O   0  0  0  0  0  0  0  0  0  0  0  0
    3.7624    0.7342    0.0000 C   0  0  0  0  0  0  0  0  0  0  0  0
    3.2013    2.1252    0.0000 C   0  0  0  0  0  0  0  0  0  0  0  0
    4.1256    3.3068    0.0000 O   0  0  0  0  0  0  0  0  0  0  0  0
   -0.6844   -2.0927    0.0000 C   0  0  0  0  0  0  0  0  0  0  0  0
   -1.5224   -0.8484    0.0000 N   0  0  0  0  0  0  0  0  0  0  0  0
   -1.3429   -3.4405    0.0000 C   0  0  0  0  0  0  0  0  0  0  0  0
   -2.8392   -3.5441    0.0000 O   0  0  0  0  0  0  0  0  0  0  0  0
   -0.5049   -4.6845    0.0000 C   0  0  0  0  0  0  0  0  0  0  0  0
   -1.1631   -6.0322    0.0000 O   0  0  0  0  0  0  0  0  0  0  0  0
  1  2  1  0  0  0  0
  2  3  1  0  0  0  0
  4  3  1  0  0  0  0
  3 41  1  0  0  0  0
  5  4  1  0  0  0  0
  5  6  1  0  0  0  0
 37  5  1  0  0  0  0
  6  7  1  0  0  0  0
  8  7  1  0  0  0  0
  7 34  1  0  0  0  0
  8  9  1  0  0  0  0
 10  8  1  0  0  0  0
 10 11  1  0  0  0  0
 33 10  1  0  0  0  0
 11 12  1  0  0  0  0
 13 12  1  0  0  0  0
 12 20  1  0  0  0  0
 13 14  1  0  0  0  0
 15 13  1  0  0  0  0
 15 16  1  0  0  0  0
 17 15  1  0  0  0  0
 18 17  1  0  0  0  0
 18 19  1  0  0  0  0
 20 18  1  0  0  0  0
 20 21  1  0  0  0  0
 21 22  1  0  0  0  0
 23 22  1  0  0  0  0
 22 31  1  0  0  0  0
 24 23  1  0  0  0  0
 24 25  1  0  0  0  0
 27 24  1  0  0  0  0
 25 26  1  0  0  0  0
 27 28  1  0  0  0  0
 29 27  1  0  0  0  0
 29 30  1  0  0  0  0
 31 29  1  0  0  0  0
 31 32  1  0  0  0  0
 34 33  1  0  0  0  0
 34 35  1  0  0  0  0
 35 36  1  0  0  0  0
 37 38  1  0  0  0  0
 39 37  1  0  0  0  0
 39 40  1  0  0  0  0
 41 39  1  0  0  0  0
 41 42  1  0  0  0  0
M  END
> <Inchi_key>
UOZODPSAJZTQNH-UHFFFAOYSA-N

> <Source>
Mulliner , Kotsampasakou

> <ID>
EK0402;HT1597

> <H_MFHB>
0

> <CAS>
1263-89-4

> <Cholestasis>
0

> <Name>
paromomycin sulfate;paromomycin

> <Class>
0

$$$$