
  -INDIGO-08031710012D

 11 11  0  0  0  0  0  0  0  0999 V2000
    7.3636   -2.8343    0.0000 C   0  0  0  0  0  0  0  0  0  0  0  0
    5.8636   -2.8343    0.0000 O   0  0  0  0  0  0  0  0  0  0  0  0
    5.1136   -1.5352    0.0000 C   0  0  0  0  0  0  0  0  0  0  0  0
    5.8636   -0.2362    0.0000 O   0  0  0  0  0  0  0  0  0  0  0  0
    3.6136   -1.5352    0.0000 C   0  0  0  0  0  0  0  0  0  0  0  0
    2.8636   -2.8343    0.0000 C   0  0  0  0  0  0  0  0  0  0  0  0
    1.3636   -2.8343    0.0000 C   0  0  0  0  0  0  0  0  0  0  0  0
    0.6136   -1.5352    0.0000 C   0  0  0  0  0  0  0  0  0  0  0  0
    1.3636   -0.2362    0.0000 C   0  0  0  0  0  0  0  0  0  0  0  0
    2.8636   -0.2362    0.0000 C   0  0  0  0  0  0  0  0  0  0  0  0
    3.6136    1.0628    0.0000 O   0  0  0  0  0  0  0  0  0  0  0  0
  1  2  1  0  0  0  0
  2  3  1  0  0  0  0
  3  4  2  0  0  0  0
  3  5  1  0  0  0  0
  6  5  2  0  0  0  0
  5 10  1  0  0  0  0
  7  6  1  0  0  0  0
  8  7  2  0  0  0  0
  9  8  1  0  0  0  0
 10  9  2  0  0  0  0
 10 11  1  0  0  0  0
M  END
> <Inchi_key>
OSWPMRLSEDHDFF-UHFFFAOYSA-N

> <Source>
Mulliner , Kotsampasakou

> <ID>
EK0338;HT1368

> <H_MFHB>
0

> <CAS>
119-36-8

> <Cholestasis>
0

> <Name>
methylsalicylate;methyl salicylate;methyl salicylic acid

> <Class>
0

$$$$