

  -INDIGO-08031710012D

 11 11  0  0  0  0  0  0  0  0999 V2000
    9.1739   -0.1399    0.0000 N   0  0  0  0  0  0  0  0  0  0  0  0
    7.8748   -0.8899    0.0000 C   0  0  0  0  0  0  0  0  0  0  0  0
    6.5758   -0.1399    0.0000 C   0  0  0  0  0  0  0  0  0  0  0  0
    5.2767   -0.8899    0.0000 C   0  0  0  0  0  0  0  0  0  0  0  0
    5.2767   -2.3899    0.0000 C   0  0  0  0  0  0  0  0  0  0  0  0
    3.9777   -3.1399    0.0000 C   0  0  0  0  0  0  0  0  0  0  0  0
    2.6787   -2.3899    0.0000 C   0  0  0  0  0  0  0  0  0  0  0  0
    1.3796   -3.1399    0.0000 O   0  0  0  0  0  0  0  0  0  0  0  0
    2.6787   -0.8899    0.0000 C   0  0  0  0  0  0  0  0  0  0  0  0
    1.3796   -0.1399    0.0000 O   0  0  0  0  0  0  0  0  0  0  0  0
    3.9777   -0.1399    0.0000 C   0  0  0  0  0  0  0  0  0  0  0  0
  1  2  1  0  0  0  0
  2  3  1  0  0  0  0
  3  4  1  0  0  0  0
  5  4  2  0  0  0  0
  4 11  1  0  0  0  0
  6  5  1  0  0  0  0
  7  6  2  0  0  0  0
  7  8  1  0  0  0  0
  9  7  1  0  0  0  0
  9 10  1  0  0  0  0
 11  9  2  0  0  0  0
M  END
> <Inchi_key>
VYFYYTLLBUKUHU-UHFFFAOYSA-N

> <Source>
Mulliner , Kotsampasakou

> <ID>
EK0174;HT0709

> <H_MFHB>
0

> <CAS>


> <Cholestasis>
0

> <Name>
dopamine hydrochloride;dopamine

> <Class>
0


$$$$