
  -INDIGO-08031710012D

 31 34  0  0  0  0  0  0  0  0999 V2000
   10.8297    4.9265    0.0000 C   0  0  0  0  0  0  0  0  0  0  0  0
   10.8297    6.4265    0.0000 C   0  0  0  0  0  0  0  0  0  0  0  0
    9.5307    7.1764    0.0000 O   0  0  0  0  0  0  0  0  0  0  0  0
    9.5307    8.6764    0.0000 C   0  0  0  0  0  0  0  0  0  0  0  0
    8.2317    9.4265    0.0000 C   0  0  0  0  0  0  0  0  0  0  0  0
    6.9324    8.6764    0.0000 C   0  0  0  0  0  0  0  0  0  0  0  0
    5.6334    9.4265    0.0000 C   0  0  0  0  0  0  0  0  0  0  0  0
    4.3345    8.6764    0.0000 C   0  0  0  0  0  0  0  0  0  0  0  0
    4.3345    7.1764    0.0000 C   0  0  0  0  0  0  0  0  0  0  0  0
    3.0355    6.4265    0.0000 O   0  0  0  0  0  0  0  0  0  0  0  0
    1.7365    7.1764    0.0000 C   0  0  0  0  0  0  0  0  0  0  0  0
    0.4372    6.4265    0.0000 C   0  0  0  0  0  0  0  0  0  0  0  0
   -0.8618    7.1764    0.0000 N   0  0  0  0  0  0  0  0  0  0  0  0
   -0.8618    8.6764    0.0000 C   0  0  0  0  0  0  0  0  0  0  0  0
    0.4372    9.4265    0.0000 C   0  0  0  0  0  0  0  0  0  0  0  0
    0.4372   10.9265    0.0000 C   0  0  0  0  0  0  0  0  0  0  0  0
   -0.8618   11.6764    0.0000 C   0  0  0  0  0  0  0  0  0  0  0  0
   -2.1608   10.9265    0.0000 C   0  0  0  0  0  0  0  0  0  0  0  0
   -2.1608    9.4265    0.0000 C   0  0  0  0  0  0  0  0  0  0  0  0
   -3.4598    8.6764    0.0000 O   0  0  0  0  0  0  0  0  0  0  0  0
   -3.4598    7.1764    0.0000 C   0  0  0  0  0  0  0  0  0  0  0  0
   -4.7588    6.4265    0.0000 C   0  0  0  0  0  0  0  0  0  0  0  0
   -4.7588    4.9265    0.0000 C   0  0  0  0  0  0  0  0  0  0  0  0
   -3.4598    4.1764    0.0000 C   0  0  0  0  0  0  0  0  0  0  0  0
   -2.1608    4.9265    0.0000 C   0  0  0  0  0  0  0  0  0  0  0  0
   -2.1608    6.4265    0.0000 C   0  0  0  0  0  0  0  0  0  0  0  0
    5.6334    6.4265    0.0000 C   0  0  0  0  0  0  0  0  0  0  0  0
    6.9324    7.1764    0.0000 C   0  0  0  0  0  0  0  0  0  0  0  0
   10.8297    9.4265    0.0000 C   0  0  0  0  0  0  0  0  0  0  0  0
   10.8297   10.9265    0.0000 O   0  0  0  0  0  0  0  0  0  0  0  0
   12.1287    8.6764    0.0000 O   0  0  0  0  0  0  0  0  0  0  0  0
  1  2  1  0  0  0  0
  2  3  1  0  0  0  0
  3  4  1  0  0  0  0
  4  5  1  0  0  0  0
  4 29  1  0  0  0  0
  5  6  1  0  0  0  0
  7  6  2  0  0  0  0
  6 28  1  0  0  0  0
  8  7  1  0  0  0  0
  9  8  2  0  0  0  0
  9 10  1  0  0  0  0
 27  9  1  0  0  0  0
 10 11  1  0  0  0  0
 11 12  1  0  0  0  0
 12 13  1  0  0  0  0
 14 13  1  0  0  0  0
 13 26  1  0  0  0  0
 15 14  2  0  0  0  0
 14 19  1  0  0  0  0
 16 15  1  0  0  0  0
 17 16  2  0  0  0  0
 18 17  1  0  0  0  0
 19 18  2  0  0  0  0
 20 19  1  0  0  0  0
 21 20  1  0  0  0  0
 22 21  2  0  0  0  0
 21 26  1  0  0  0  0
 23 22  1  0  0  0  0
 24 23  2  0  0  0  0
 25 24  1  0  0  0  0
 26 25  2  0  0  0  0
 28 27  2  0  0  0  0
 29 30  2  0  0  0  0
 29 31  1  0  0  0  0
M  END
> <Inchi_key>
WMUIIGVAWPWQAW-UHFFFAOYSA-N

> <Source>
Mulliner , Kotsampasakou

> <ID>
EK0461;HT1793

> <H_MFHB>
0

> <CAS>


> <Cholestasis>
0

> <Name>
ragaglitazar

> <Class>
0

$$$$