

  -INDIGO-08031710012D

 22 25  0  0  0  0  0  0  0  0999 V2000
   -0.2941    0.5624    0.0000 C   0  0  0  0  0  0  0  0  0  0  0  0
    0.5618    1.7942    0.0000 C   0  0  0  0  0  0  0  0  0  0  0  0
    1.3166    0.4978    0.0000 C   0  0  0  0  0  0  0  0  0  0  0  0
    2.8166    0.5032    0.0000 C   0  0  0  0  0  0  0  0  0  0  0  0
    3.5619    1.8049    0.0000 C   0  0  0  0  0  0  0  0  0  0  0  0
    2.8074    3.1013    0.0000 C   0  0  0  0  0  0  0  0  0  0  0  0
    3.5527    4.4030    0.0000 C   0  0  0  0  0  0  0  0  0  0  0  0
    5.0526    4.4083    0.0000 C   0  0  0  0  0  0  0  0  0  0  0  0
    5.8072    3.1120    0.0000 C   0  0  0  0  0  0  0  0  0  0  0  0
    7.3072    3.1174    0.0000 C   0  0  0  0  0  0  0  0  0  0  0  0
    8.0526    4.4191    0.0000 O   0  0  0  0  0  0  0  0  0  0  0  0
    8.0620    1.8210    0.0000 C   0  0  0  0  0  0  0  0  0  0  0  0
    9.5619    1.8264    0.0000 O   0  0  0  0  0  0  0  0  0  0  0  0
    7.3165    0.5193    0.0000 C   0  0  0  0  0  0  0  0  0  0  0  0
    5.8166    0.5139    0.0000 C   0  0  0  0  0  0  0  0  0  0  0  0
    5.0620    1.8103    0.0000 C   0  0  0  0  0  0  0  0  0  0  0  0
    4.3167    0.5086    0.0000 C   0  0  0  0  0  0  0  0  0  0  0  0
    1.3073    3.0959    0.0000 C   0  0  0  0  0  0  0  0  0  0  0  0
    0.2996    4.2070    0.0000 C   0  0  0  0  0  0  0  0  0  0  0  0
   -1.0685    3.5920    0.0000 C   0  0  0  0  0  0  0  0  0  0  0  0
   -0.9065    2.1008    0.0000 C   0  0  0  0  0  0  0  0  0  0  0  0
   -2.0175    1.0931    0.0000 O   0  0  0  0  0  0  0  0  0  0  0  0
  1  2  1  0  0  0  0
  3  2  1  0  0  0  0
 18  2  1  0  0  0  0
  2 21  1  0  0  0  0
  4  3  1  0  0  0  0
  5  4  1  0  0  0  0
  5  6  1  0  0  0  0
 16  5  1  0  0  0  0
  6  7  1  0  0  0  0
 18  6  1  0  0  0  0
  7  8  1  0  0  0  0
  8  9  1  0  0  0  0
 10  9  2  0  0  0  0
  9 16  1  0  0  0  0
 10 11  1  0  0  0  0
 12 10  1  0  0  0  0
 12 13  2  0  0  0  0
 14 12  1  0  0  0  0
 15 14  1  0  0  0  0
 16 15  1  0  0  0  0
 16 17  1  0  0  0  0
 19 18  1  0  0  0  0
 20 19  1  0  0  0  0
 21 20  1  0  0  0  0
 21 22  2  0  0  0  0
M  END
> <Inchi_key>
OSVMTWJCGUFAOD-UHFFFAOYSA-N

> <Source>
Mulliner

> <ID>
HT0933

> <H_MFHB>
0

> <CAS>


> <Cholestasis>


> <Name>
formestane

> <Class>
0


$$$$