
  -INDIGO-08031710012D

 14 16  0  0  0  0  0  0  0  0999 V2000
    9.1759   -2.4587    0.0000 O   0  0  0  0  0  0  0  0  0  0  0  0
    7.8769   -1.7087    0.0000 C   0  0  0  0  0  0  0  0  0  0  0  0
    6.5779   -2.4587    0.0000 O   0  0  0  0  0  0  0  0  0  0  0  0
    5.2788   -1.7087    0.0000 C   0  0  0  0  0  0  0  0  0  0  0  0
    3.9798   -2.4587    0.0000 C   0  0  0  0  0  0  0  0  0  0  0  0
    2.6807   -1.7087    0.0000 C   0  0  0  0  0  0  0  0  0  0  0  0
    1.2543   -2.1722    0.0000 O   0  0  0  0  0  0  0  0  0  0  0  0
    0.3725   -0.9587    0.0000 C   0  0  0  0  0  0  0  0  0  0  0  0
    1.2543    0.2548    0.0000 C   0  0  0  0  0  0  0  0  0  0  0  0
    2.6807   -0.2087    0.0000 C   0  0  0  0  0  0  0  0  0  0  0  0
    3.9798    0.5413    0.0000 C   0  0  0  0  0  0  0  0  0  0  0  0
    5.2788   -0.2087    0.0000 C   0  0  0  0  0  0  0  0  0  0  0  0
    6.5779    0.5413    0.0000 C   0  0  0  0  0  0  0  0  0  0  0  0
    7.8769   -0.2087    0.0000 C   0  0  0  0  0  0  0  0  0  0  0  0
  1  2  2  0  0  0  0
  3  2  1  0  0  0  0
  2 14  1  0  0  0  0
  4  3  1  0  0  0  0
  5  4  2  0  0  0  0
  4 12  1  0  0  0  0
  6  5  1  0  0  0  0
  7  6  1  0  0  0  0
  6 10  2  0  0  0  0
  8  7  1  0  0  0  0
  9  8  2  0  0  0  0
 10  9  1  0  0  0  0
 11 10  1  0  0  0  0
 12 11  2  0  0  0  0
 13 12  1  0  0  0  0
 14 13  2  0  0  0  0
M  END
> <Inchi_key>
ZCCUUQDIBDJBTK-UHFFFAOYSA-N

> <Source>
Mulliner

> <ID>
HT2802

> <H_MFHB>
0

> <CAS>


> <Cholestasis>


> <Name>
psoralen

> <Class>
0

$$$$