

  -INDIGO-08031710012D

 32 35  0  0  0  0  0  0  0  0999 V2000
    1.3763    2.4572    0.0000 C   0  0  0  0  0  0  0  0  0  0  0  0
    2.6754    1.7072    0.0000 N   0  0  0  0  0  0  0  0  0  0  0  0
    3.9744    2.4572    0.0000 C   0  0  0  0  0  0  0  0  0  0  0  0
    2.6754    0.2072    0.0000 C   0  0  0  0  0  0  0  0  0  0  0  0
    3.9744   -0.5428    0.0000 C   0  0  0  0  0  0  0  0  0  0  0  0
    5.2733    0.2072    0.0000 C   0  0  0  0  0  0  0  0  0  0  0  0
    5.2733    1.7072    0.0000 O   0  0  0  0  0  0  0  0  0  0  0  0
    6.5724   -0.5428    0.0000 C   0  0  0  0  0  0  0  0  0  0  0  0
    7.8716    0.2072    0.0000 C   0  0  0  0  0  0  0  0  0  0  0  0
    7.8716    1.7072    0.0000 C   0  0  0  0  0  0  0  0  0  0  0  0
    9.1705   -0.5428    0.0000 C   0  0  0  0  0  0  0  0  0  0  0  0
   10.4697    0.2072    0.0000 C   0  0  0  0  0  0  0  0  0  0  0  0
   11.7686   -0.5428    0.0000 C   0  0  0  0  0  0  0  0  0  0  0  0
   11.7686   -2.0428    0.0000 C   0  0  0  0  0  0  0  0  0  0  0  0
   10.4697   -2.7928    0.0000 C   0  0  0  0  0  0  0  0  0  0  0  0
   10.4697   -4.2928    0.0000 O   0  0  0  0  0  0  0  0  0  0  0  0
    9.1705   -2.0428    0.0000 C   0  0  0  0  0  0  0  0  0  0  0  0
    7.8716   -2.7928    0.0000 C   0  0  0  0  0  0  0  0  0  0  0  0
    6.5724   -2.0428    0.0000 C   0  0  0  0  0  0  0  0  0  0  0  0
    5.2733   -2.7928    0.0000 C   0  0  0  0  0  0  0  0  0  0  0  0
    5.2733   -4.2928    0.0000 O   0  0  0  0  0  0  0  0  0  0  0  0
    3.9744   -2.0428    0.0000 C   0  0  0  0  0  0  0  0  0  0  0  0
    3.9744   -3.5428    0.0000 O   0  0  0  0  0  0  0  0  0  0  0  0
    2.6754   -2.7928    0.0000 C   0  0  0  0  0  0  0  0  0  0  0  0
    1.3763   -2.0428    0.0000 C   0  0  0  0  0  0  0  0  0  0  0  0
    0.0773   -2.7928    0.0000 C   0  0  0  0  0  0  0  0  0  0  0  0
   -1.2218   -2.0428    0.0000 O   0  0  0  0  0  0  0  0  0  0  0  0
    0.0773   -4.2928    0.0000 N   0  0  0  0  0  0  0  0  0  0  0  0
    1.3763   -0.5428    0.0000 C   0  0  0  0  0  0  0  0  0  0  0  0
    0.0773    0.2072    0.0000 O   0  0  0  0  0  0  0  0  0  0  0  0
    2.6754   -4.2928    0.0000 O   0  0  0  0  0  0  0  0  0  0  0  0
    7.8716   -4.2928    0.0000 O   0  0  0  0  0  0  0  0  0  0  0  0
  1  2  1  0  0  0  0
  2  3  1  0  0  0  0
  2  4  1  0  0  0  0
  5  4  1  0  0  0  0
  4 29  1  0  0  0  0
  6  5  1  0  0  0  0
  5 22  1  0  0  0  0
  6  7  1  0  0  0  0
  8  6  1  0  0  0  0
  9  8  1  0  0  0  0
  8 19  1  0  0  0  0
  9 10  2  0  0  0  0
 11  9  1  0  0  0  0
 12 11  2  0  0  0  0
 11 17  1  0  0  0  0
 13 12  1  0  0  0  0
 14 13  2  0  0  0  0
 15 14  1  0  0  0  0
 15 16  1  0  0  0  0
 17 15  2  0  0  0  0
 18 17  1  0  0  0  0
 19 18  2  0  0  0  0
 18 32  1  0  0  0  0
 20 19  1  0  0  0  0
 20 21  2  0  0  0  0
 22 20  1  0  0  0  0
 22 23  1  0  0  0  0
 24 22  1  0  0  0  0
 25 24  2  0  0  0  0
 24 31  1  0  0  0  0
 25 26  1  0  0  0  0
 29 25  1  0  0  0  0
 26 27  2  0  0  0  0
 26 28  1  0  0  0  0
 29 30  2  0  0  0  0
M  END
> <Inchi_key>
XIYOPDCBBDCGOE-UHFFFAOYSA-N

> <Source>
Mulliner

> <ID>
HT1330

> <H_MFHB>
0

> <CAS>


> <Cholestasis>


> <Name>
methacycline

> <Class>
0


$$$$