
  -INDIGO-08031709442D

 28 29  0  0  0  0  0  0  0  0999 V2000
    6.7667   -0.0236    0.0000 O   0  0  0  0  0  0  0  0  0  0  0  0
    5.4253    0.6478    0.0000 C   0  0  0  0  0  0  0  0  0  0  0  0
    5.3363    2.1452    0.0000 O   0  0  0  0  0  0  0  0  0  0  0  0
    4.1733   -0.1780    0.0000 C   0  0  0  0  0  0  0  0  0  0  0  0
    2.8319    0.4934    0.0000 C   0  0  0  0  0  0  0  0  0  0  0  0
    1.5797   -0.3325    0.0000 C   0  0  0  0  0  0  0  0  0  0  0  0
    0.1422    0.0959    0.0000 C   0  0  0  0  0  0  0  0  0  0  0  0
   -0.2057    1.5551    0.0000 O   0  0  0  0  0  0  0  0  0  0  0  0
   -1.6432    1.9833    0.0000 C   0  0  0  0  0  0  0  0  0  0  0  0
   -0.9475   -0.9349    0.0000 O   0  0  0  0  0  0  0  0  0  0  0  0
    1.6689   -1.8298    0.0000 C   0  0  0  0  0  0  0  0  0  0  0  0
    3.0103   -2.5013    0.0000 N   0  0  0  0  0  0  0  0  0  0  0  0
    4.2623   -1.6754    0.0000 C   0  0  0  0  0  0  0  0  0  0  0  0
    5.6037   -2.3468    0.0000 C   0  0  0  0  0  0  0  0  0  0  0  0
    0.4167   -2.6557    0.0000 C   0  0  0  0  0  0  0  0  0  0  0  0
    3.0041    1.9835    0.0000 C   0  0  0  0  0  0  0  0  0  0  0  0
    4.3807    2.5793    0.0000 C   0  0  0  0  0  0  0  0  0  0  0  0
    4.5527    4.0695    0.0000 C   0  0  0  0  0  0  0  0  0  0  0  0
    3.3486    4.9637    0.0000 C   0  0  0  0  0  0  0  0  0  0  0  0
    1.9718    4.3678    0.0000 C   0  0  0  0  0  0  0  0  0  0  0  0
    1.7998    2.8777    0.0000 C   0  0  0  0  0  0  0  0  0  0  0  0
    0.4232    2.2818    0.0000 N   0  0  0  0  0  0  0  0  0  0  0  0
   -0.7813    3.1759    0.0000 O   0  0  0  0  0  0  0  0  0  0  0  0
    0.2510    0.7917    0.0000 O   0  0  0  0  0  0  0  0  0  0  0  0
    8.0189    0.8024    0.0000 C   0  0  0  0  0  0  0  0  0  0  0  0
    9.3601    0.1308    0.0000 C   0  0  0  0  0  0  0  0  0  0  0  0
   10.6123    0.9568    0.0000 C   0  0  0  0  0  0  0  0  0  0  0  0
    9.4493   -1.3664    0.0000 C   0  0  0  0  0  0  0  0  0  0  0  0
  1  2  1  0  0  0  0
  1 25  1  0  0  0  0
  2  3  2  0  0  0  0
  2  4  1  0  0  0  0
  5  4  1  0  0  0  0
  4 13  2  0  0  0  0
  6  5  1  0  0  0  0
  5 16  1  0  0  0  0
  6  7  1  0  0  0  0
 11  6  2  0  0  0  0
  7  8  1  0  0  0  0
  7 10  2  0  0  0  0
  8  9  1  0  0  0  0
 12 11  1  0  0  0  0
 11 15  1  0  0  0  0
 13 12  1  0  0  0  0
 13 14  1  0  0  0  0
 17 16  2  0  0  0  0
 16 21  1  0  0  0  0
 18 17  1  0  0  0  0
 19 18  2  0  0  0  0
 20 19  1  0  0  0  0
 21 20  2  0  0  0  0
 21 22  1  0  0  0  0
 22 23  2  0  0  0  0
 22 24  1  0  0  0  0
 25 26  1  0  0  0  0
 26 27  1  0  0  0  0
 26 28  1  0  0  0  0
M  CHG  2  22   1  24  -1
M  END
> <Inchi_key>
VKQFCGNPDRICFG-UHFFFAOYSA-N, OSCYLUQUDCIHGJ-KNTRCKAVSA-N

> <Source>
Kotsampasakou, Mulliner

> <ID>
HT1499;EK0382

> <H_MFHB>
0

> <CAS>


> <Cholestasis>
0

> <Name>
nisoldipine

> <Class>
0

$$$$