
  -INDIGO-08031710012D

 26 30  0  0  0  0  0  0  0  0999 V2000
   -0.9952   -1.0121    0.0000 C   0  0  0  0  0  0  0  0  0  0  0  0
   -0.9699   -2.5118    0.0000 O   0  0  0  0  0  0  0  0  0  0  0  0
    0.3417   -3.2398    0.0000 C   0  0  0  0  0  0  0  0  0  0  0  0
    1.6279   -2.4680    0.0000 O   0  0  0  0  0  0  0  0  0  0  0  0
    0.3670   -4.7396    0.0000 C   0  0  0  0  0  0  0  0  0  0  0  0
   -0.9193   -5.5114    0.0000 C   0  0  0  0  0  0  0  0  0  0  0  0
   -2.2307   -4.7834    0.0000 O   0  0  0  0  0  0  0  0  0  0  0  0
   -0.8940   -7.0112    0.0000 C   0  0  0  0  0  0  0  0  0  0  0  0
    0.4176   -7.7392    0.0000 C   0  0  0  0  0  0  0  0  0  0  0  0
    1.7037   -6.9674    0.0000 C   0  0  0  0  0  0  0  0  0  0  0  0
    3.0153   -7.6953    0.0000 C   0  0  0  0  0  0  0  0  0  0  0  0
    4.3015   -6.9234    0.0000 N   0  0  0  0  0  0  0  0  0  0  0  0
    5.6131   -7.6515    0.0000 C   0  0  0  0  0  0  0  0  0  0  0  0
    6.8992   -6.8797    0.0000 C   0  0  0  0  0  0  0  0  0  0  0  0
    6.8739   -5.3799    0.0000 C   0  0  0  0  0  0  0  0  0  0  0  0
    5.5625   -4.6519    0.0000 C   0  0  0  0  0  0  0  0  0  0  0  0
    5.8495   -3.1797    0.0000 N   0  0  0  0  0  0  0  0  0  0  0  0
    7.3384   -2.9977    0.0000 C   0  0  0  0  0  0  0  0  0  0  0  0
    8.1995   -1.7695    0.0000 C   0  0  0  0  0  0  0  0  0  0  0  0
    9.6937   -1.9011    0.0000 C   0  0  0  0  0  0  0  0  0  0  0  0
   10.3268   -3.2609    0.0000 C   0  0  0  0  0  0  0  0  0  0  0  0
    9.4659   -4.4891    0.0000 C   0  0  0  0  0  0  0  0  0  0  0  0
    7.9715   -4.3575    0.0000 C   0  0  0  0  0  0  0  0  0  0  0  0
    4.2762   -5.4237    0.0000 C   0  0  0  0  0  0  0  0  0  0  0  0
    2.9648   -4.6958    0.0000 C   0  0  0  0  0  0  0  0  0  0  0  0
    1.6784   -5.4676    0.0000 C   0  0  0  0  0  0  0  0  0  0  0  0
  1  2  1  0  0  0  0
  2  3  1  0  0  0  0
  3  4  2  0  0  0  0
  3  5  1  0  0  0  0
  6  5  1  0  0  0  0
  5 26  1  0  0  0  0
  6  7  1  0  0  0  0
  8  6  1  0  0  0  0
  9  8  1  0  0  0  0
 10  9  1  0  0  0  0
 11 10  1  0  0  0  0
 10 26  1  0  0  0  0
 12 11  1  0  0  0  0
 13 12  1  0  0  0  0
 12 24  1  0  0  0  0
 14 13  1  0  0  0  0
 15 14  1  0  0  0  0
 15 16  2  0  0  0  0
 23 15  1  0  0  0  0
 16 17  1  0  0  0  0
 24 16  1  0  0  0  0
 17 18  1  0  0  0  0
 19 18  1  0  0  0  0
 18 23  2  0  0  0  0
 20 19  2  0  0  0  0
 21 20  1  0  0  0  0
 22 21  2  0  0  0  0
 23 22  1  0  0  0  0
 25 24  1  0  0  0  0
 26 25  1  0  0  0  0
M  END
> <Inchi_key>
BLGXFZZNTVWLAY-UHFFFAOYSA-N

> <Source>
Mulliner , Kotsampasakou

> <ID>
EK0572;HT2205

> <H_MFHB>
0

> <CAS>


> <Cholestasis>
0

> <Name>
yohimbine

> <Class>
0

$$$$