
  -INDIGO-08031710012D

 17 18  0  0  0  0  0  0  0  0999 V2000
   11.6295   -2.7558    0.0000 O   0  0  0  0  0  0  0  0  0  0  0  0
   10.1296   -2.7558    0.0000 C   0  0  0  0  0  0  0  0  0  0  0  0
    9.3794   -1.4568    0.0000 C   0  0  0  0  0  0  0  0  0  0  0  0
   10.1296   -0.1578    0.0000 O   0  0  0  0  0  0  0  0  0  0  0  0
    7.8795   -1.4568    0.0000 C   0  0  0  0  0  0  0  0  0  0  0  0
    6.9979   -2.6703    0.0000 O   0  0  0  0  0  0  0  0  0  0  0  0
    5.5711   -2.2068    0.0000 C   0  0  0  0  0  0  0  0  0  0  0  0
    4.1446   -2.6703    0.0000 O   0  0  0  0  0  0  0  0  0  0  0  0
    3.2629   -1.4568    0.0000 C   0  0  0  0  0  0  0  0  0  0  0  0
    4.1446   -0.2433    0.0000 O   0  0  0  0  0  0  0  0  0  0  0  0
    5.5711   -0.7068    0.0000 C   0  0  0  0  0  0  0  0  0  0  0  0
    6.9979   -0.2433    0.0000 C   0  0  0  0  0  0  0  0  0  0  0  0
    7.4613    1.1833    0.0000 O   0  0  0  0  0  0  0  0  0  0  0  0
    1.7628   -1.4568    0.0000 C   0  0  0  0  0  0  0  0  0  0  0  0
    0.2629   -1.4568    0.0000 Cl  0  0  0  0  0  0  0  0  0  0  0  0
    1.7628   -2.9568    0.0000 Cl  0  0  0  0  0  0  0  0  0  0  0  0
    1.7628    0.0432    0.0000 Cl  0  0  0  0  0  0  0  0  0  0  0  0
  1  2  1  0  0  0  0
  2  3  1  0  0  0  0
  3  4  1  0  0  0  0
  3  5  1  0  0  0  0
  6  5  1  0  0  0  0
  5 12  1  0  0  0  0
  7  6  1  0  0  0  0
  8  7  1  0  0  0  0
  7 11  1  0  0  0  0
  9  8  1  0  0  0  0
 10  9  1  0  0  0  0
  9 14  1  0  0  0  0
 11 10  1  0  0  0  0
 12 11  1  0  0  0  0
 12 13  1  0  0  0  0
 14 15  1  0  0  0  0
 14 16  1  0  0  0  0
 14 17  1  0  0  0  0
M  END
> <Inchi_key>
OJYGBLRPYBAHRT-UHFFFAOYSA-N

> <Source>
Mulliner

> <ID>
HT3404

> <H_MFHB>
0

> <CAS>


> <Cholestasis>


> <Name>


> <Class>
0

$$$$