

  -INDIGO-08031710012D

 18 18  0  0  0  0  0  0  0  0999 V2000
   -0.1234    0.4605    0.0000 C   0  0  0  0  0  0  0  0  0  0  0  0
    1.1756    1.2105    0.0000 C   0  0  0  0  0  0  0  0  0  0  0  0
    2.4747    0.4605    0.0000 C   0  0  0  0  0  0  0  0  0  0  0  0
    2.4747   -1.0395    0.0000 C   0  0  0  0  0  0  0  0  0  0  0  0
    3.7737    1.2105    0.0000 C   0  0  0  0  0  0  0  0  0  0  0  0
    2.4747    1.9605    0.0000 C   0  0  0  0  0  0  0  0  0  0  0  0
    2.4747    3.4605    0.0000 C   0  0  0  0  0  0  0  0  0  0  0  0
    1.1756    4.2105    0.0000 C   0  0  0  0  0  0  0  0  0  0  0  0
    4.5237   -0.0885    0.0000 C   0  0  0  0  0  0  0  0  0  0  0  0
    3.7737   -1.3876    0.0000 O   0  0  0  0  0  0  0  0  0  0  0  0
    6.0237   -0.0885    0.0000 N   0  0  0  0  0  0  0  0  0  0  0  0
    6.7737   -1.3876    0.0000 C   0  0  0  0  0  0  0  0  0  0  0  0
    6.7737    1.2105    0.0000 C   0  0  0  0  0  0  0  0  0  0  0  0
    8.2737    1.2105    0.0000 O   0  0  0  0  0  0  0  0  0  0  0  0
    6.0237    2.5096    0.0000 N   0  0  0  0  0  0  0  0  0  0  0  0
    6.7737    3.8086    0.0000 C   0  0  0  0  0  0  0  0  0  0  0  0
    4.5237    2.5096    0.0000 C   0  0  0  0  0  0  0  0  0  0  0  0
    3.7737    3.8086    0.0000 O   0  0  0  0  0  0  0  0  0  0  0  0
  1  2  1  0  0  0  0
  2  3  1  0  0  0  0
  3  4  1  0  0  0  0
  3  5  1  0  0  0  0
  5  6  1  0  0  0  0
  9  5  1  0  0  0  0
  5 17  1  0  0  0  0
  6  7  1  0  0  0  0
  7  8  2  0  0  0  0
  9 10  2  0  0  0  0
 11  9  1  0  0  0  0
 11 12  1  0  0  0  0
 13 11  1  0  0  0  0
 13 14  2  0  0  0  0
 15 13  1  0  0  0  0
 15 16  1  0  0  0  0
 17 15  1  0  0  0  0
 17 18  2  0  0  0  0
M  END
> <Inchi_key>
CDKJETHMMUVSNV-UHFFFAOYSA-N

> <Source>
Mulliner

> <ID>
HT1974

> <H_MFHB>
0

> <CAS>


> <Cholestasis>


> <Name>
talbutal

> <Class>
0


$$$$