
  -INDIGO-08031710012D

 23 25  0  0  0  0  0  0  0  0999 V2000
    8.4102   -7.9191    0.0000 C   0  0  0  0  0  0  0  0  0  0  0  0
    8.3201   -6.4218    0.0000 C   0  0  0  0  0  0  0  0  0  0  0  0
    9.5716   -5.5951    0.0000 C   0  0  0  0  0  0  0  0  0  0  0  0
    6.9781   -5.7512    0.0000 N   0  0  0  0  0  0  0  0  0  0  0  0
    5.7266   -6.5779    0.0000 C   0  0  0  0  0  0  0  0  0  0  0  0
    4.3848   -5.9073    0.0000 C   0  0  0  0  0  0  0  0  0  0  0  0
    3.1331   -6.7340    0.0000 C   0  0  0  0  0  0  0  0  0  0  0  0
    1.7914   -6.0634    0.0000 C   0  0  0  0  0  0  0  0  0  0  0  0
    1.8293   -7.5629    0.0000 C   0  0  0  0  0  0  0  0  0  0  0  0
    3.1467   -8.2799    0.0000 O   0  0  0  0  0  0  0  0  0  0  0  0
    0.5495   -8.3454    0.0000 N   0  0  0  0  0  0  0  0  0  0  0  0
    0.2920   -6.0227    0.0000 C   0  0  0  0  0  0  0  0  0  0  0  0
   -0.7416   -7.1098    0.0000 C   0  0  0  0  0  0  0  0  0  0  0  0
   -2.1997   -6.7582    0.0000 C   0  0  0  0  0  0  0  0  0  0  0  0
   -2.6244   -5.3195    0.0000 C   0  0  0  0  0  0  0  0  0  0  0  0
   -1.5910   -4.2325    0.0000 C   0  0  0  0  0  0  0  0  0  0  0  0
   -0.1325   -4.5841    0.0000 C   0  0  0  0  0  0  0  0  0  0  0  0
    1.1045   -3.7356    0.0000 C   0  0  0  0  0  0  0  0  0  0  0  0
    1.3015   -2.2487    0.0000 C   0  0  0  0  0  0  0  0  0  0  0  0
    2.6880   -1.6760    0.0000 C   0  0  0  0  0  0  0  0  0  0  0  0
    3.8772   -2.5903    0.0000 C   0  0  0  0  0  0  0  0  0  0  0  0
    3.6799   -4.0772    0.0000 C   0  0  0  0  0  0  0  0  0  0  0  0
    2.2935   -4.6499    0.0000 C   0  0  0  0  0  0  0  0  0  0  0  0
  1  2  1  0  0  0  0
  2  3  1  0  0  0  0
  2  4  1  0  0  0  0
  4  5  1  0  0  0  0
  5  6  1  0  0  0  0
  6  7  1  0  0  0  0
  7  8  1  0  0  0  0
  8  9  1  0  0  0  0
 12  8  1  0  0  0  0
  8 23  1  0  0  0  0
  9 10  2  0  0  0  0
  9 11  1  0  0  0  0
 13 12  2  0  0  0  0
 12 17  1  0  0  0  0
 14 13  1  0  0  0  0
 15 14  2  0  0  0  0
 16 15  1  0  0  0  0
 17 16  2  0  0  0  0
 18 17  1  0  0  0  0
 19 18  2  0  0  0  0
 18 23  1  0  0  0  0
 20 19  1  0  0  0  0
 21 20  2  0  0  0  0
 22 21  1  0  0  0  0
 23 22  2  0  0  0  0
M  END
> <Inchi_key>
UCEWGESNIULAGX-UHFFFAOYSA-N

> <Source>
Mulliner

> <ID>
HT1090

> <H_MFHB>
0

> <CAS>


> <Cholestasis>


> <Name>
indecainide hydrochloride

> <Class>
0

$$$$