

  -INDIGO-08031710012D

 20 21  0  0  0  0  0  0  0  0999 V2000
   13.5271   -3.6246    0.0000 C   0  0  0  0  0  0  0  0  0  0  0  0
   12.2280   -2.8746    0.0000 C   0  0  0  0  0  0  0  0  0  0  0  0
   12.2280   -1.3746    0.0000 C   0  0  0  0  0  0  0  0  0  0  0  0
   10.9290   -3.6246    0.0000 N   0  0  0  0  0  0  0  0  0  0  0  0
    9.6301   -2.8746    0.0000 C   0  0  0  0  0  0  0  0  0  0  0  0
    8.3309   -3.6246    0.0000 C   0  0  0  0  0  0  0  0  0  0  0  0
    8.3309   -5.1246    0.0000 C   0  0  0  0  0  0  0  0  0  0  0  0
    7.0320   -5.8746    0.0000 C   0  0  0  0  0  0  0  0  0  0  0  0
    5.7329   -5.1246    0.0000 C   0  0  0  0  0  0  0  0  0  0  0  0
    4.4337   -5.8746    0.0000 C   0  0  0  0  0  0  0  0  0  0  0  0
    3.1348   -5.1246    0.0000 C   0  0  0  0  0  0  0  0  0  0  0  0
    1.8356   -5.8746    0.0000 C   0  0  0  0  0  0  0  0  0  0  0  0
    1.8356   -7.3746    0.0000 O   0  0  0  0  0  0  0  0  0  0  0  0
    3.1348   -3.6246    0.0000 C   0  0  0  0  0  0  0  0  0  0  0  0
    4.4337   -2.8746    0.0000 C   0  0  0  0  0  0  0  0  0  0  0  0
    5.7329   -3.6246    0.0000 C   0  0  0  0  0  0  0  0  0  0  0  0
    7.0320   -2.8746    0.0000 N   0  0  0  0  0  0  0  0  0  0  0  0
    1.8356   -2.8746    0.0000 N   0  0  0  0  0  0  0  0  0  0  0  0
    0.5367   -3.6246    0.0000 O   0  0  0  0  0  0  0  0  0  0  0  0
    1.8356   -1.3746    0.0000 O   0  0  0  0  0  0  0  0  0  0  0  0
  1  2  1  0  0  0  0
  2  3  1  0  0  0  0
  2  4  1  0  0  0  0
  4  5  1  0  0  0  0
  5  6  1  0  0  0  0
  7  6  1  0  0  0  0
  6 17  1  0  0  0  0
  8  7  1  0  0  0  0
  9  8  1  0  0  0  0
 10  9  1  0  0  0  0
  9 16  2  0  0  0  0
 11 10  2  0  0  0  0
 11 12  1  0  0  0  0
 14 11  1  0  0  0  0
 12 13  1  0  0  0  0
 15 14  2  0  0  0  0
 14 18  1  0  0  0  0
 16 15  1  0  0  0  0
 17 16  1  0  0  0  0
 18 19  2  0  0  0  0
 18 20  1  0  0  0  0
M  CHG  2  18   1  20  -1
M  END
> <Inchi_key>
XCGYUJZMCCFSRP-UHFFFAOYSA-N

> <Source>
Mulliner

> <ID>
HT1552

> <H_MFHB>
0

> <CAS>


> <Cholestasis>


> <Name>
oxamniquine

> <Class>
0


$$$$