

  -INDIGO-08031710012D

 19 20  0  0  0  0  0  0  0  0999 V2000
   12.2111   -1.3772    0.0000 N   0  0  0  0  0  0  0  0  0  0  0  0
   10.9122   -2.1272    0.0000 C   0  0  0  0  0  0  0  0  0  0  0  0
   10.9122   -3.6272    0.0000 O   0  0  0  0  0  0  0  0  0  0  0  0
    9.6131   -1.3772    0.0000 C   0  0  0  0  0  0  0  0  0  0  0  0
    8.3140   -2.1272    0.0000 C   0  0  0  0  0  0  0  0  0  0  0  0
    8.3140   -3.6272    0.0000 C   0  0  0  0  0  0  0  0  0  0  0  0
    7.0151   -4.3772    0.0000 C   0  0  0  0  0  0  0  0  0  0  0  0
    5.7158   -3.6272    0.0000 C   0  0  0  0  0  0  0  0  0  0  0  0
    5.7158   -2.1272    0.0000 C   0  0  0  0  0  0  0  0  0  0  0  0
    4.4169   -1.3772    0.0000 C   0  0  0  0  0  0  0  0  0  0  0  0
    4.4169    0.1228    0.0000 O   0  0  0  0  0  0  0  0  0  0  0  0
    3.1180   -2.1272    0.0000 C   0  0  0  0  0  0  0  0  0  0  0  0
    3.1180   -3.6272    0.0000 C   0  0  0  0  0  0  0  0  0  0  0  0
    1.8187   -4.3772    0.0000 C   0  0  0  0  0  0  0  0  0  0  0  0
    0.5198   -3.6272    0.0000 C   0  0  0  0  0  0  0  0  0  0  0  0
    0.5198   -2.1272    0.0000 C   0  0  0  0  0  0  0  0  0  0  0  0
    1.8187   -1.3772    0.0000 C   0  0  0  0  0  0  0  0  0  0  0  0
    7.0151   -1.3772    0.0000 C   0  0  0  0  0  0  0  0  0  0  0  0
    7.0151    0.1228    0.0000 N   0  0  0  0  0  0  0  0  0  0  0  0
  1  2  1  0  0  0  0
  2  3  2  0  0  0  0
  2  4  1  0  0  0  0
  4  5  1  0  0  0  0
  6  5  2  0  0  0  0
  5 18  1  0  0  0  0
  7  6  1  0  0  0  0
  8  7  2  0  0  0  0
  9  8  1  0  0  0  0
  9 10  1  0  0  0  0
 18  9  2  0  0  0  0
 10 11  2  0  0  0  0
 10 12  1  0  0  0  0
 13 12  2  0  0  0  0
 12 17  1  0  0  0  0
 14 13  1  0  0  0  0
 15 14  2  0  0  0  0
 16 15  1  0  0  0  0
 17 16  2  0  0  0  0
 18 19  1  0  0  0  0
M  END
> <Inchi_key>
QEFAQIPZVLVERP-UHFFFAOYSA-N

> <Source>
Mulliner

> <ID>
HT1476

> <H_MFHB>
0

> <CAS>


> <Cholestasis>


> <Name>
nepafenac

> <Class>
0


$$$$