
  -INDIGO-08031710012D

 13 13  0  0  0  0  0  0  0  0999 V2000
    2.3077    0.0000    0.0000 N   0  0  0  0  0  0  0  0  0  0  0  0
    3.0577    1.2990    0.0000 C   0  0  0  0  0  0  0  0  0  0  0  0
    2.3077    2.5981    0.0000 C   0  0  0  0  0  0  0  0  0  0  0  0
    0.8078    2.5981    0.0000 C   0  0  0  0  0  0  0  0  0  0  0  0
    0.0577    1.2990    0.0000 C   0  0  0  0  0  0  0  0  0  0  0  0
   -1.4423    1.2990    0.0000 C   0  0  0  0  0  0  0  0  0  0  0  0
   -2.1922    2.5981    0.0000 C   0  0  0  0  0  0  0  0  0  0  0  0
   -3.6923    2.5981    0.0000 O   0  0  0  0  0  0  0  0  0  0  0  0
   -1.4423    3.8971    0.0000 C   0  0  0  0  0  0  0  0  0  0  0  0
    0.0577    3.8971    0.0000 C   0  0  0  0  0  0  0  0  0  0  0  0
    4.5577    1.2990    0.0000 C   0  0  0  0  0  0  0  0  0  0  0  0
    5.3077    0.0000    0.0000 O   0  0  0  0  0  0  0  0  0  0  0  0
    5.3077    2.5981    0.0000 O   0  0  0  0  0  0  0  0  0  0  0  0
  1  2  1  0  0  0  0
  2  3  1  0  0  0  0
  2 11  1  0  0  0  0
  3  4  1  0  0  0  0
  5  4  2  0  0  0  0
  4 10  1  0  0  0  0
  6  5  1  0  0  0  0
  7  6  2  0  0  0  0
  7  8  1  0  0  0  0
  9  7  1  0  0  0  0
 10  9  2  0  0  0  0
 11 12  2  0  0  0  0
 11 13  1  0  0  0  0
M  END
> <Inchi_key>
OUYCCCASQSFEME-UHFFFAOYSA-N

> <Source>
Mulliner

> <ID>
HT1253

> <H_MFHB>
0

> <CAS>
60-18-4

> <Cholestasis>


> <Name>
l-tyrosine

> <Class>
0

$$$$