

  -INDIGO-08031710012D

 36 38  0  0  0  0  0  0  0  0999 V2000
    5.2547    1.9791    0.0000 C   0  0  0  0  0  0  0  0  0  0  0  0
    6.6752    1.4976    0.0000 N   0  0  0  0  0  0  0  0  0  0  0  0
    7.5567    2.6027    0.0000 C   0  0  0  0  0  0  0  0  0  0  0  0
    9.0505    2.5800    0.0000 C   0  0  0  0  0  0  0  0  0  0  0  0
    9.8171    3.8623    0.0000 C   0  0  0  0  0  0  0  0  0  0  0  0
   11.2211    4.0304    0.0000 N   0  0  0  0  0  0  0  0  0  0  0  0
   12.3660    3.2819    0.0000 C   0  0  0  0  0  0  0  0  0  0  0  0
   13.0091    2.1133    0.0000 C   0  0  0  0  0  0  0  0  0  0  0  0
   13.0361    0.7477    0.0000 N   0  0  0  0  0  0  0  0  0  0  0  0
   12.1546   -0.3575    0.0000 C   0  0  0  0  0  0  0  0  0  0  0  0
   10.6609   -0.3347    0.0000 C   0  0  0  0  0  0  0  0  0  0  0  0
    9.8940   -1.6171    0.0000 C   0  0  0  0  0  0  0  0  0  0  0  0
    8.4900   -1.7852    0.0000 N   0  0  0  0  0  0  0  0  0  0  0  0
    7.3454   -1.0368    0.0000 C   0  0  0  0  0  0  0  0  0  0  0  0
    6.7022    0.1319    0.0000 C   0  0  0  0  0  0  0  0  0  0  0  0
    4.1273    0.9895    0.0000 C   0  0  0  0  0  0  0  0  0  0  0  0
    4.4207   -0.4815    0.0000 C   0  0  0  0  0  0  0  0  0  0  0  0
    3.2933   -1.4710    0.0000 C   0  0  0  0  0  0  0  0  0  0  0  0
    1.8727   -0.9895    0.0000 C   0  0  0  0  0  0  0  0  0  0  0  0
    0.7453   -1.9791    0.0000 C   0  0  0  0  0  0  0  0  0  0  0  0
   -0.6752   -1.4976    0.0000 N   0  0  0  0  0  0  0  0  0  0  0  0
   -1.5567   -2.6027    0.0000 C   0  0  0  0  0  0  0  0  0  0  0  0
   -3.0505   -2.5800    0.0000 C   0  0  0  0  0  0  0  0  0  0  0  0
   -3.8171   -3.8623    0.0000 C   0  0  0  0  0  0  0  0  0  0  0  0
   -5.2211   -4.0304    0.0000 N   0  0  0  0  0  0  0  0  0  0  0  0
   -6.3660   -3.2819    0.0000 C   0  0  0  0  0  0  0  0  0  0  0  0
   -7.0091   -2.1133    0.0000 C   0  0  0  0  0  0  0  0  0  0  0  0
   -7.0361   -0.7477    0.0000 N   0  0  0  0  0  0  0  0  0  0  0  0
   -6.1546    0.3575    0.0000 C   0  0  0  0  0  0  0  0  0  0  0  0
   -4.6609    0.3347    0.0000 C   0  0  0  0  0  0  0  0  0  0  0  0
   -3.8940    1.6171    0.0000 C   0  0  0  0  0  0  0  0  0  0  0  0
   -2.4900    1.7852    0.0000 N   0  0  0  0  0  0  0  0  0  0  0  0
   -1.3454    1.0368    0.0000 C   0  0  0  0  0  0  0  0  0  0  0  0
   -0.7022   -0.1319    0.0000 C   0  0  0  0  0  0  0  0  0  0  0  0
    1.5793    0.4815    0.0000 C   0  0  0  0  0  0  0  0  0  0  0  0
    2.7067    1.4710    0.0000 C   0  0  0  0  0  0  0  0  0  0  0  0
  1  2  1  0  0  0  0
  1 16  1  0  0  0  0
  3  2  1  0  0  0  0
  2 15  1  0  0  0  0
  4  3  1  0  0  0  0
  5  4  1  0  0  0  0
  6  5  1  0  0  0  0
  7  6  1  0  0  0  0
  8  7  1  0  0  0  0
  9  8  1  0  0  0  0
 10  9  1  0  0  0  0
 11 10  1  0  0  0  0
 12 11  1  0  0  0  0
 13 12  1  0  0  0  0
 14 13  1  0  0  0  0
 15 14  1  0  0  0  0
 17 16  2  0  0  0  0
 16 36  1  0  0  0  0
 18 17  1  0  0  0  0
 19 18  2  0  0  0  0
 19 20  1  0  0  0  0
 35 19  1  0  0  0  0
 20 21  1  0  0  0  0
 22 21  1  0  0  0  0
 21 34  1  0  0  0  0
 23 22  1  0  0  0  0
 24 23  1  0  0  0  0
 25 24  1  0  0  0  0
 26 25  1  0  0  0  0
 27 26  1  0  0  0  0
 28 27  1  0  0  0  0
 29 28  1  0  0  0  0
 30 29  1  0  0  0  0
 31 30  1  0  0  0  0
 32 31  1  0  0  0  0
 33 32  1  0  0  0  0
 34 33  1  0  0  0  0
 36 35  2  0  0  0  0
M  END
> <Inchi_key>
YIQPUIGJQJDJOS-UHFFFAOYSA-N

> <Source>
Mulliner

> <ID>
HT1703

> <H_MFHB>
0

> <CAS>


> <Cholestasis>


> <Name>
plerixafor

> <Class>
0


$$$$