
  -INDIGO-08031710012D

 21 23  0  0  0  0  0  0  0  0999 V2000
    0.7868    7.0488    0.0000 C   0  0  0  0  0  0  0  0  0  0  0  0
    2.2499    6.7180    0.0000 C   0  0  0  0  0  0  0  0  0  0  0  0
    2.6950    5.2856    0.0000 C   0  0  0  0  0  0  0  0  0  0  0  0
    4.1155    4.8037    0.0000 C   0  0  0  0  0  0  0  0  0  0  0  0
    4.0962    3.3038    0.0000 C   0  0  0  0  0  0  0  0  0  0  0  0
    5.3376    2.4620    0.0000 C   0  0  0  0  0  0  0  0  0  0  0  0
    5.4517    0.9663    0.0000 N   0  0  0  0  0  0  0  0  0  0  0  0
    4.3530   -0.0568    0.0000 C   0  0  0  0  0  0  0  0  0  0  0  0
    2.8692    0.1633    0.0000 C   0  0  0  0  0  0  0  0  0  0  0  0
    2.0263   -1.0774    0.0000 O   0  0  0  0  0  0  0  0  0  0  0  0
    2.1179    1.4616    0.0000 N   0  0  0  0  0  0  0  0  0  0  0  0
    0.6222    1.3475    0.0000 C   0  0  0  0  0  0  0  0  0  0  0  0
    2.6637    2.8587    0.0000 C   0  0  0  0  0  0  0  0  0  0  0  0
    1.7978    4.0835    0.0000 S   0  0  0  0  0  0  0  0  0  0  0  0
    6.6353    3.2145    0.0000 C   0  0  0  0  0  0  0  0  0  0  0  0
    6.6324    4.7145    0.0000 C   0  0  0  0  0  0  0  0  0  0  0  0
    7.9298    5.4670    0.0000 C   0  0  0  0  0  0  0  0  0  0  0  0
    9.2304    4.7195    0.0000 C   0  0  0  0  0  0  0  0  0  0  0  0
    9.2333    3.2195    0.0000 C   0  0  0  0  0  0  0  0  0  0  0  0
    7.9358    2.4670    0.0000 C   0  0  0  0  0  0  0  0  0  0  0  0
    7.9386    0.9670    0.0000 Cl  0  0  0  0  0  0  0  0  0  0  0  0
  1  2  1  0  0  0  0
  2  3  1  0  0  0  0
  4  3  2  0  0  0  0
  3 14  1  0  0  0  0
  5  4  1  0  0  0  0
  6  5  1  0  0  0  0
  5 13  2  0  0  0  0
  7  6  2  0  0  0  0
  6 15  1  0  0  0  0
  8  7  1  0  0  0  0
  9  8  1  0  0  0  0
  9 10  2  0  0  0  0
 11  9  1  0  0  0  0
 11 12  1  0  0  0  0
 13 11  1  0  0  0  0
 14 13  1  0  0  0  0
 16 15  2  0  0  0  0
 15 20  1  0  0  0  0
 17 16  1  0  0  0  0
 18 17  2  0  0  0  0
 19 18  1  0  0  0  0
 20 19  2  0  0  0  0
 20 21  1  0  0  0  0
M  END
> <Inchi_key>
CHBRHODLKOZEPZ-UHFFFAOYSA-N

> <Source>
Mulliner

> <ID>
HT0535

> <H_MFHB>
0

> <CAS>
33671-46-4

> <Cholestasis>


> <Name>
clotiazepam

> <Class>
0

$$$$