

  -INDIGO-08031710012D

 34 37  0  0  0  0  0  0  0  0999 V2000
    0.7270    9.2018    0.0000 C   0  0  0  0  0  0  0  0  0  0  0  0
   -0.2359    8.0516    0.0000 C   0  0  0  0  0  0  0  0  0  0  0  0
    0.2790    6.6427    0.0000 C   0  0  0  0  0  0  0  0  0  0  0  0
    1.7563    6.3840    0.0000 O   0  0  0  0  0  0  0  0  0  0  0  0
   -0.6839    5.4925    0.0000 O   0  0  0  0  0  0  0  0  0  0  0  0
   -0.1692    4.0835    0.0000 C   0  0  0  0  0  0  0  0  0  0  0  0
   -0.2981    2.5891    0.0000 C   0  0  0  0  0  0  0  0  0  0  0  0
   -1.5831    1.8150    0.0000 C   0  0  0  0  0  0  0  0  0  0  0  0
    1.0834    2.0047    0.0000 C   0  0  0  0  0  0  0  0  0  0  0  0
    2.0661    3.1379    0.0000 C   0  0  0  0  0  0  0  0  0  0  0  0
    3.5657    3.1659    0.0000 C   0  0  0  0  0  0  0  0  0  0  0  0
    4.3398    1.8810    0.0000 C   0  0  0  0  0  0  0  0  0  0  0  0
    5.8397    1.9090    0.0000 C   0  0  0  0  0  0  0  0  0  0  0  0
    6.6137    0.6242    0.0000 F   0  0  0  0  0  0  0  0  0  0  0  0
    6.5653    3.2218    0.0000 C   0  0  0  0  0  0  0  0  0  0  0  0
    8.0649    3.2498    0.0000 C   0  0  0  0  0  0  0  0  0  0  0  0
    8.7905    4.5626    0.0000 C   0  0  0  0  0  0  0  0  0  0  0  0
   10.2904    4.5906    0.0000 O   0  0  0  0  0  0  0  0  0  0  0  0
    8.0164    5.8475    0.0000 C   0  0  0  0  0  0  0  0  0  0  0  0
    6.5168    5.8194    0.0000 C   0  0  0  0  0  0  0  0  0  0  0  0
    5.7912    4.5067    0.0000 C   0  0  0  0  0  0  0  0  0  0  0  0
    5.0171    5.7914    0.0000 C   0  0  0  0  0  0  0  0  0  0  0  0
    4.2913    4.4787    0.0000 C   0  0  0  0  0  0  0  0  0  0  0  0
    2.7917    4.4506    0.0000 F   0  0  0  0  0  0  0  0  0  0  0  0
    3.5172    5.7636    0.0000 C   0  0  0  0  0  0  0  0  0  0  0  0
    4.2431    7.0763    0.0000 O   0  0  0  0  0  0  0  0  0  0  0  0
    2.0176    5.7356    0.0000 C   0  0  0  0  0  0  0  0  0  0  0  0
    1.2920    4.4226    0.0000 C   0  0  0  0  0  0  0  0  0  0  0  0
    0.4088    5.6352    0.0000 C   0  0  0  0  0  0  0  0  0  0  0  0
   -1.6549    4.2904    0.0000 C   0  0  0  0  0  0  0  0  0  0  0  0
   -2.2185    5.6806    0.0000 O   0  0  0  0  0  0  0  0  0  0  0  0
   -2.5770    3.1074    0.0000 S   0  0  0  0  0  0  0  0  0  0  0  0
   -4.0626    3.3144    0.0000 C   0  0  0  0  0  0  0  0  0  0  0  0
   -4.9847    2.1314    0.0000 F   0  0  0  0  0  0  0  0  0  0  0  0
  1  2  1  0  0  0  0
  2  3  1  0  0  0  0
  3  4  2  0  0  0  0
  3  5  1  0  0  0  0
  5  6  1  0  0  0  0
  7  6  1  0  0  0  0
  6 28  1  0  0  0  0
  6 30  1  0  0  0  0
  7  8  1  0  0  0  0
  9  7  1  0  0  0  0
 10  9  1  0  0  0  0
 11 10  1  0  0  0  0
 10 28  1  0  0  0  0
 12 11  1  0  0  0  0
 11 23  1  0  0  0  0
 13 12  1  0  0  0  0
 13 14  1  0  0  0  0
 15 13  1  0  0  0  0
 16 15  2  0  0  0  0
 15 21  1  0  0  0  0
 17 16  1  0  0  0  0
 17 18  2  0  0  0  0
 19 17  1  0  0  0  0
 20 19  2  0  0  0  0
 21 20  1  0  0  0  0
 21 22  1  0  0  0  0
 23 21  1  0  0  0  0
 23 24  1  0  0  0  0
 25 23  1  0  0  0  0
 25 26  1  0  0  0  0
 27 25  1  0  0  0  0
 28 27  1  0  0  0  0
 28 29  1  0  0  0  0
 30 31  2  0  0  0  0
 30 32  1  0  0  0  0
 32 33  1  0  0  0  0
 33 34  1  0  0  0  0
M  END
> <Inchi_key>
WMWTYOKRWGGJOA-UHFFFAOYSA-N

> <Source>
Mulliner

> <ID>
HT0925

> <H_MFHB>
0

> <CAS>


> <Cholestasis>


> <Name>
fluticasone propionate

> <Class>
0


$$$$