
  -INDIGO-08031710012D

 21 22  0  0  0  0  0  0  0  0999 V2000
   -2.0358   -1.1753    0.0000 C   0  0  0  0  0  0  0  0  0  0  0  0
   -2.7857   -2.4744    0.0000 C   0  0  0  0  0  0  0  0  0  0  0  0
   -4.2856   -2.4744    0.0000 C   0  0  0  0  0  0  0  0  0  0  0  0
   -5.0358   -3.7734    0.0000 C   0  0  0  0  0  0  0  0  0  0  0  0
   -6.5357   -3.7734    0.0000 O   0  0  0  0  0  0  0  0  0  0  0  0
   -4.2856   -5.0724    0.0000 N   0  0  0  0  0  0  0  0  0  0  0  0
   -2.7857   -5.0724    0.0000 N   0  0  0  0  0  0  0  0  0  0  0  0
   -2.0358   -3.7734    0.0000 C   0  0  0  0  0  0  0  0  0  0  0  0
   -0.5356   -3.7734    0.0000 C   0  0  0  0  0  0  0  0  0  0  0  0
    0.2143   -5.0724    0.0000 C   0  0  0  0  0  0  0  0  0  0  0  0
    1.7142   -5.0724    0.0000 C   0  0  0  0  0  0  0  0  0  0  0  0
    2.4644   -3.7734    0.0000 C   0  0  0  0  0  0  0  0  0  0  0  0
    3.9643   -3.7734    0.0000 N   0  0  0  0  0  0  0  0  0  0  0  0
    4.7143   -5.0724    0.0000 N   0  0  0  0  0  0  0  0  0  0  0  0
    6.2144   -5.0724    0.0000 C   0  0  0  0  0  0  0  0  0  0  0  0
    6.9643   -6.3715    0.0000 C   0  0  0  0  0  0  0  0  0  0  0  0
    7.7143   -7.6705    0.0000 N   0  0  0  0  0  0  0  0  0  0  0  0
    6.9643   -3.7734    0.0000 C   0  0  0  0  0  0  0  0  0  0  0  0
    7.7143   -2.4744    0.0000 N   0  0  0  0  0  0  0  0  0  0  0  0
    1.7142   -2.4744    0.0000 C   0  0  0  0  0  0  0  0  0  0  0  0
    0.2143   -2.4744    0.0000 C   0  0  0  0  0  0  0  0  0  0  0  0
  1  2  1  0  0  0  0
  3  2  1  0  0  0  0
  2  8  1  0  0  0  0
  4  3  1  0  0  0  0
  4  5  2  0  0  0  0
  6  4  1  0  0  0  0
  7  6  1  0  0  0  0
  8  7  2  0  0  0  0
  8  9  1  0  0  0  0
 10  9  2  0  0  0  0
  9 21  1  0  0  0  0
 11 10  1  0  0  0  0
 12 11  2  0  0  0  0
 12 13  1  0  0  0  0
 20 12  1  0  0  0  0
 13 14  1  0  0  0  0
 14 15  2  0  0  0  0
 15 16  1  0  0  0  0
 15 18  1  0  0  0  0
 16 17  3  0  0  0  0
 18 19  3  0  0  0  0
 21 20  2  0  0  0  0
M  END
> <Inchi_key>
WHXMKTBCFHIYNQ-UHFFFAOYSA-N

> <Source>
Mulliner

> <ID>
HT1202

> <H_MFHB>
0

> <CAS>


> <Cholestasis>


> <Name>
levosimendan

> <Class>
0

$$$$