
  -INDIGO-08031710012D

 26 25  0  0  0  0  0  0  0  0999 V2000
    0.0000    0.0000    0.0000 F   0  0  0  0  0  0  0  0  0  0  0  0
    1.5001    0.0000    0.0000 C   0  0  0  0  0  0  0  0  0  0  0  0
    1.5001    1.5000    0.0000 F   0  0  0  0  0  0  0  0  0  0  0  0
    1.5001   -1.5000    0.0000 F   0  0  0  0  0  0  0  0  0  0  0  0
    2.9999    0.0000    0.0000 C   0  0  0  0  0  0  0  0  0  0  0  0
    2.9999   -1.5000    0.0000 F   0  0  0  0  0  0  0  0  0  0  0  0
    2.9999    1.5000    0.0000 F   0  0  0  0  0  0  0  0  0  0  0  0
    4.5000    0.0000    0.0000 C   0  0  0  0  0  0  0  0  0  0  0  0
    4.5000   -1.5000    0.0000 F   0  0  0  0  0  0  0  0  0  0  0  0
    4.5000    1.5000    0.0000 F   0  0  0  0  0  0  0  0  0  0  0  0
    6.0001    0.0000    0.0000 C   0  0  0  0  0  0  0  0  0  0  0  0
    6.0001   -1.5000    0.0000 F   0  0  0  0  0  0  0  0  0  0  0  0
    6.0001    1.5000    0.0000 F   0  0  0  0  0  0  0  0  0  0  0  0
    7.4999    0.0000    0.0000 C   0  0  0  0  0  0  0  0  0  0  0  0
    7.4999    1.5000    0.0000 F   0  0  0  0  0  0  0  0  0  0  0  0
    7.4999   -1.5000    0.0000 F   0  0  0  0  0  0  0  0  0  0  0  0
    9.0000    0.0000    0.0000 C   0  0  0  0  0  0  0  0  0  0  0  0
    9.0000   -1.5000    0.0000 F   0  0  0  0  0  0  0  0  0  0  0  0
    9.0000    1.5000    0.0000 F   0  0  0  0  0  0  0  0  0  0  0  0
   10.5001    0.0000    0.0000 C   0  0  0  0  0  0  0  0  0  0  0  0
   10.5001   -1.5000    0.0000 F   0  0  0  0  0  0  0  0  0  0  0  0
   10.5001    1.5000    0.0000 F   0  0  0  0  0  0  0  0  0  0  0  0
   11.9999    0.0000    0.0000 C   0  0  0  0  0  0  0  0  0  0  0  0
   11.9999    1.5000    0.0000 F   0  0  0  0  0  0  0  0  0  0  0  0
   11.9999   -1.5000    0.0000 F   0  0  0  0  0  0  0  0  0  0  0  0
   13.5000    0.0000    0.0000 Br  0  0  0  0  0  0  0  0  0  0  0  0
  1  2  1  0  0  0  0
  2  3  1  0  0  0  0
  2  4  1  0  0  0  0
  2  5  1  0  0  0  0
  5  6  1  0  0  0  0
  5  7  1  0  0  0  0
  5  8  1  0  0  0  0
  8  9  1  0  0  0  0
  8 10  1  0  0  0  0
  8 11  1  0  0  0  0
 11 12  1  0  0  0  0
 11 13  1  0  0  0  0
 11 14  1  0  0  0  0
 14 15  1  0  0  0  0
 14 16  1  0  0  0  0
 14 17  1  0  0  0  0
 17 18  1  0  0  0  0
 17 19  1  0  0  0  0
 17 20  1  0  0  0  0
 20 21  1  0  0  0  0
 20 22  1  0  0  0  0
 20 23  1  0  0  0  0
 23 24  1  0  0  0  0
 23 25  1  0  0  0  0
 23 26  1  0  0  0  0
M  END
> <Inchi_key>
WTWWXOGTJWMJHI-UHFFFAOYSA-N

> <Source>
Mulliner

> <ID>
HT1632

> <H_MFHB>
0

> <CAS>


> <Cholestasis>


> <Name>
perfluorooctylbromide

> <Class>
0

$$$$