

  -INDIGO-08031710012D

 23 25  0  0  0  0  0  0  0  0999 V2000
   15.8741   -1.8229    0.0000 C   0  0  0  0  0  0  0  0  0  0  0  0
   14.4533   -2.3042    0.0000 N   0  0  0  0  0  0  0  0  0  0  0  0
   14.1600   -3.7751    0.0000 C   0  0  0  0  0  0  0  0  0  0  0  0
   13.3262   -1.3144    0.0000 C   0  0  0  0  0  0  0  0  0  0  0  0
   11.9057   -1.7957    0.0000 C   0  0  0  0  0  0  0  0  0  0  0  0
   10.7784   -0.8060    0.0000 C   0  0  0  0  0  0  0  0  0  0  0  0
   10.9166    0.6876    0.0000 C   0  0  0  0  0  0  0  0  0  0  0  0
    9.5388    1.2806    0.0000 N   0  0  0  0  0  0  0  0  0  0  0  0
    8.5490    0.1535    0.0000 C   0  0  0  0  0  0  0  0  0  0  0  0
    7.0491    0.1348    0.0000 C   0  0  0  0  0  0  0  0  0  0  0  0
    6.3155   -1.1735    0.0000 C   0  0  0  0  0  0  0  0  0  0  0  0
    7.0815   -2.4631    0.0000 C   0  0  0  0  0  0  0  0  0  0  0  0
    6.3479   -3.7714    0.0000 C   0  0  0  0  0  0  0  0  0  0  0  0
    4.8481   -3.7901    0.0000 S   0  0  0  0  0  0  0  0  0  0  0  0
    4.8293   -2.2902    0.0000 O   0  0  0  0  0  0  0  0  0  0  0  0
    4.8666   -5.2900    0.0000 O   0  0  0  0  0  0  0  0  0  0  0  0
    3.3482   -3.8088    0.0000 N   0  0  0  0  0  0  0  0  0  0  0  0
    2.4816   -5.0332    0.0000 C   0  0  0  0  0  0  0  0  0  0  0  0
    1.0495   -4.5875    0.0000 C   0  0  0  0  0  0  0  0  0  0  0  0
    1.0307   -3.0876    0.0000 C   0  0  0  0  0  0  0  0  0  0  0  0
    2.4515   -2.6064    0.0000 C   0  0  0  0  0  0  0  0  0  0  0  0
    8.5814   -2.4444    0.0000 C   0  0  0  0  0  0  0  0  0  0  0  0
    9.3152   -1.1361    0.0000 C   0  0  0  0  0  0  0  0  0  0  0  0
  1  2  1  0  0  0  0
  2  3  1  0  0  0  0
  2  4  1  0  0  0  0
  4  5  1  0  0  0  0
  5  6  1  0  0  0  0
  7  6  2  0  0  0  0
  6 23  1  0  0  0  0
  8  7  1  0  0  0  0
  9  8  1  0  0  0  0
 10  9  1  0  0  0  0
  9 23  2  0  0  0  0
 11 10  2  0  0  0  0
 12 11  1  0  0  0  0
 12 13  1  0  0  0  0
 22 12  2  0  0  0  0
 13 14  1  0  0  0  0
 14 15  2  0  0  0  0
 14 16  2  0  0  0  0
 14 17  1  0  0  0  0
 18 17  1  0  0  0  0
 17 21  1  0  0  0  0
 19 18  1  0  0  0  0
 20 19  1  0  0  0  0
 21 20  1  0  0  0  0
 23 22  1  0  0  0  0
M  END
> <Inchi_key>
WKEMJKQOLOHJLZ-UHFFFAOYSA-N

> <Source>
Mulliner , Kotsampasakou

> <ID>
EK0019;HT0109

> <H_MFHB>
0

> <CAS>


> <Cholestasis>
0

> <Name>
almotriptan malate;almotriptan

> <Class>
0


$$$$