
  -INDIGO-08031710012D

 27 30  0  0  0  0  0  0  0  0999 V2000
    0.1944   -1.0751    0.0000 C   0  0  0  0  0  0  0  0  0  0  0  0
    1.6751   -0.8353    0.0000 C   0  0  0  0  0  0  0  0  0  0  0  0
    2.2080    0.5669    0.0000 C   0  0  0  0  0  0  0  0  0  0  0  0
    1.2601    1.7293    0.0000 O   0  0  0  0  0  0  0  0  0  0  0  0
    3.6887    0.8066    0.0000 C   0  0  0  0  0  0  0  0  0  0  0  0
    3.2053   -0.6134    0.0000 C   0  0  0  0  0  0  0  0  0  0  0  0
    3.5268    2.2978    0.0000 C   0  0  0  0  0  0  0  0  0  0  0  0
    2.2252    3.0434    0.0000 C   0  0  0  0  0  0  0  0  0  0  0  0
    4.8950    2.9126    0.0000 C   0  0  0  0  0  0  0  0  0  0  0  0
    5.9025    1.8013    0.0000 C   0  0  0  0  0  0  0  0  0  0  0  0
    7.4024    1.8064    0.0000 C   0  0  0  0  0  0  0  0  0  0  0  0
    8.1479    3.1080    0.0000 C   0  0  0  0  0  0  0  0  0  0  0  0
    9.6480    3.1131    0.0000 C   0  0  0  0  0  0  0  0  0  0  0  0
   10.4025    1.8167    0.0000 C   0  0  0  0  0  0  0  0  0  0  0  0
   11.9026    1.8218    0.0000 C   0  0  0  0  0  0  0  0  0  0  0  0
   12.6570    0.5253    0.0000 C   0  0  0  0  0  0  0  0  0  0  0  0
   14.1569    0.5305    0.0000 O   0  0  0  0  0  0  0  0  0  0  0  0
   11.9113   -0.7763    0.0000 C   0  0  0  0  0  0  0  0  0  0  0  0
   10.4112   -0.7814    0.0000 C   0  0  0  0  0  0  0  0  0  0  0  0
    9.6570    0.5151    0.0000 C   0  0  0  0  0  0  0  0  0  0  0  0
    8.9113   -0.7865    0.0000 C   0  0  0  0  0  0  0  0  0  0  0  0
    8.1569    0.5100    0.0000 C   0  0  0  0  0  0  0  0  0  0  0  0
    7.4114   -0.7916    0.0000 C   0  0  0  0  0  0  0  0  0  0  0  0
    8.1658   -2.0881    0.0000 O   0  0  0  0  0  0  0  0  0  0  0  0
    5.9115   -0.7968    0.0000 C   0  0  0  0  0  0  0  0  0  0  0  0
    5.1569    0.4997    0.0000 C   0  0  0  0  0  0  0  0  0  0  0  0
    4.3008   -0.7319    0.0000 C   0  0  0  0  0  0  0  0  0  0  0  0
  1  2  1  0  0  0  0
  2  3  1  0  0  0  0
  3  4  2  0  0  0  0
  3  5  1  0  0  0  0
  5  6  1  0  0  0  0
  7  5  1  0  0  0  0
  5 26  1  0  0  0  0
  7  8  1  0  0  0  0
  9  7  1  0  0  0  0
 10  9  1  0  0  0  0
 11 10  1  0  0  0  0
 10 26  1  0  0  0  0
 12 11  1  0  0  0  0
 11 22  1  0  0  0  0
 13 12  1  0  0  0  0
 14 13  1  0  0  0  0
 15 14  2  0  0  0  0
 14 20  1  0  0  0  0
 16 15  1  0  0  0  0
 16 17  2  0  0  0  0
 18 16  1  0  0  0  0
 19 18  2  0  0  0  0
 20 19  1  0  0  0  0
 20 21  1  0  0  0  0
 22 20  1  0  0  0  0
 23 22  1  0  0  0  0
 23 24  1  0  0  0  0
 25 23  1  0  0  0  0
 26 25  1  0  0  0  0
 26 27  1  0  0  0  0
M  END
> <Inchi_key>
QTTRZHGPGKRAFB-UHFFFAOYSA-N

> <Source>
Mulliner , Kotsampasakou

> <ID>
EK0471;HT1827

> <H_MFHB>
0

> <CAS>


> <Cholestasis>
0

> <Name>
rimexolone

> <Class>
0

$$$$