
  -INDIGO-08031710012D

 11 11  0  0  0  0  0  0  0  0999 V2000
    4.8115   -2.8337    0.0000 O   0  0  0  0  0  0  0  0  0  0  0  0
    4.7330   -4.3316    0.0000 N   0  0  0  0  0  0  0  0  0  0  0  0
    3.3965   -5.0126    0.0000 C   0  0  0  0  0  0  0  0  0  0  0  0
    2.1385   -4.1957    0.0000 C   0  0  0  0  0  0  0  0  0  0  0  0
    0.7381   -4.7332    0.0000 O   0  0  0  0  0  0  0  0  0  0  0  0
   -0.2059   -3.5675    0.0000 C   0  0  0  0  0  0  0  0  0  0  0  0
    0.6110   -2.3095    0.0000 C   0  0  0  0  0  0  0  0  0  0  0  0
    2.0601   -2.6977    0.0000 C   0  0  0  0  0  0  0  0  0  0  0  0
   -1.7038   -3.6460    0.0000 N   0  0  0  0  0  0  0  0  0  0  0  0
   -2.5208   -2.3880    0.0000 O   0  0  0  0  0  0  0  0  0  0  0  0
   -2.3847   -4.9825    0.0000 O   0  0  0  0  0  0  0  0  0  0  0  0
  1  2  1  0  0  0  0
  2  3  2  0  0  0  0
  3  4  1  0  0  0  0
  5  4  1  0  0  0  0
  4  8  2  0  0  0  0
  6  5  1  0  0  0  0
  7  6  2  0  0  0  0
  6  9  1  0  0  0  0
  8  7  1  0  0  0  0
  9 10  2  0  0  0  0
  9 11  1  0  0  0  0
M  CHG  2   9   1  11  -1
M  END
> <Inchi_key>
PTBKFATYSVLSSD-UTCJRWHESA-N

> <Source>
Mulliner

> <ID>
HT2656

> <H_MFHB>
0

> <CAS>


> <Cholestasis>


> <Name>


> <Class>
0

$$$$