

  -INDIGO-08031710012D

 21 22  0  0  0  0  0  0  0  0999 V2000
   -1.0714    0.6186    0.0000 O   0  0  0  0  0  0  0  0  0  0  0  0
   -1.8214    1.9176    0.0000 C   0  0  0  0  0  0  0  0  0  0  0  0
   -3.3214    1.9176    0.0000 C   0  0  0  0  0  0  0  0  0  0  0  0
   -4.0714    3.2167    0.0000 C   0  0  0  0  0  0  0  0  0  0  0  0
   -3.3214    4.5157    0.0000 C   0  0  0  0  0  0  0  0  0  0  0  0
   -4.0714    5.8147    0.0000 Cl  0  0  0  0  0  0  0  0  0  0  0  0
   -1.8214    4.5157    0.0000 C   0  0  0  0  0  0  0  0  0  0  0  0
   -1.0714    3.2167    0.0000 C   0  0  0  0  0  0  0  0  0  0  0  0
    0.4287    3.2167    0.0000 C   0  0  0  0  0  0  0  0  0  0  0  0
    1.1787    1.9176    0.0000 O   0  0  0  0  0  0  0  0  0  0  0  0
    1.1787    4.5157    0.0000 N   0  0  0  0  0  0  0  0  0  0  0  0
    2.6785    4.5157    0.0000 C   0  0  0  0  0  0  0  0  0  0  0  0
    3.4285    3.2167    0.0000 C   0  0  0  0  0  0  0  0  0  0  0  0
    4.9286    3.2167    0.0000 C   0  0  0  0  0  0  0  0  0  0  0  0
    5.6786    4.5157    0.0000 C   0  0  0  0  0  0  0  0  0  0  0  0
    4.9286    5.8147    0.0000 C   0  0  0  0  0  0  0  0  0  0  0  0
    3.4285    5.8147    0.0000 C   0  0  0  0  0  0  0  0  0  0  0  0
    2.6785    7.1138    0.0000 Cl  0  0  0  0  0  0  0  0  0  0  0  0
    7.1786    4.5157    0.0000 N   0  0  0  0  0  0  0  0  0  0  0  0
    7.9286    3.2167    0.0000 O   0  0  0  0  0  0  0  0  0  0  0  0
    7.9286    5.8147    0.0000 O   0  0  0  0  0  0  0  0  0  0  0  0
  1  2  1  0  0  0  0
  3  2  2  0  0  0  0
  2  8  1  0  0  0  0
  4  3  1  0  0  0  0
  5  4  2  0  0  0  0
  5  6  1  0  0  0  0
  7  5  1  0  0  0  0
  8  7  2  0  0  0  0
  8  9  1  0  0  0  0
  9 10  2  0  0  0  0
  9 11  1  0  0  0  0
 11 12  1  0  0  0  0
 13 12  2  0  0  0  0
 12 17  1  0  0  0  0
 14 13  1  0  0  0  0
 15 14  2  0  0  0  0
 16 15  1  0  0  0  0
 15 19  1  0  0  0  0
 17 16  2  0  0  0  0
 17 18  1  0  0  0  0
 19 20  2  0  0  0  0
 19 21  1  0  0  0  0
M  CHG  2  19   1  21  -1
M  END
> <Inchi_key>
RJMUSRYZPJIFPJ-UHFFFAOYSA-N

> <Source>
Mulliner

> <ID>
HT1486

> <H_MFHB>
0

> <CAS>
50-65-7

> <Cholestasis>


> <Name>
niclosamide

> <Class>
0


$$$$