

  -INDIGO-08031710012D

 19 19  0  0  0  0  0  0  0  0999 V2000
   -0.7176   -6.5080    0.0000 C   0  0  0  0  0  0  0  0  0  0  0  0
   -2.0164   -5.7580    0.0000 C   0  0  0  0  0  0  0  0  0  0  0  0
   -3.3156   -6.5080    0.0000 C   0  0  0  0  0  0  0  0  0  0  0  0
   -2.0164   -4.2580    0.0000 C   0  0  0  0  0  0  0  0  0  0  0  0
   -3.3156   -3.5080    0.0000 C   0  0  0  0  0  0  0  0  0  0  0  0
   -3.3156   -2.0080    0.0000 C   0  0  0  0  0  0  0  0  0  0  0  0
   -2.0164   -1.2580    0.0000 C   0  0  0  0  0  0  0  0  0  0  0  0
   -0.7176   -2.0080    0.0000 C   0  0  0  0  0  0  0  0  0  0  0  0
    0.5815   -1.2580    0.0000 C   0  0  0  0  0  0  0  0  0  0  0  0
    0.5815    0.2420    0.0000 C   0  0  0  0  0  0  0  0  0  0  0  0
    1.8806   -2.0080    0.0000 C   0  0  0  0  0  0  0  0  0  0  0  0
   -0.7176   -3.5080    0.0000 C   0  0  0  0  0  0  0  0  0  0  0  0
    0.5815   -4.2580    0.0000 O   0  0  0  0  0  0  0  0  0  0  0  0
    1.8806   -3.5080    0.0000 C   0  0  0  0  0  0  0  0  0  0  0  0
    3.1797   -4.2580    0.0000 O   0  0  0  0  0  0  0  0  0  0  0  0
    4.4785   -3.5080    0.0000 P   0  0  0  0  0  0  0  0  0  0  0  0
    5.2286   -4.8071    0.0000 O   0  0  0  0  0  0  0  0  0  0  0  0
    5.7777   -2.7580    0.0000 O   0  0  0  0  0  0  0  0  0  0  0  0
    3.7286   -2.2089    0.0000 O   0  0  0  0  0  0  0  0  0  0  0  0
  1  2  1  0  0  0  0
  2  3  1  0  0  0  0
  2  4  1  0  0  0  0
  5  4  2  0  0  0  0
  4 12  1  0  0  0  0
  6  5  1  0  0  0  0
  7  6  2  0  0  0  0
  8  7  1  0  0  0  0
  8  9  1  0  0  0  0
 12  8  2  0  0  0  0
  9 10  1  0  0  0  0
  9 11  1  0  0  0  0
 12 13  1  0  0  0  0
 13 14  1  0  0  0  0
 14 15  1  0  0  0  0
 15 16  1  0  0  0  0
 16 17  2  0  0  0  0
 16 18  1  0  0  0  0
 16 19  1  0  0  0  0
M  END
> <Inchi_key>
QVNNONOFASOXQV-UHFFFAOYSA-N

> <Source>
Mulliner

> <ID>
HT0940

> <H_MFHB>
0

> <CAS>


> <Cholestasis>


> <Name>
fospropofol disodium;fospropofol

> <Class>
0


$$$$