
  -INDIGO-08031710012D

 17 18  0  0  0  0  0  0  0  0999 V2000
   -0.2031   -0.2031    0.0000 C   0  0  0  0  0  0  0  0  0  0  0  0
   -0.2031   -1.7031    0.0000 C   0  0  0  0  0  0  0  0  0  0  0  0
    1.0961   -2.4531    0.0000 O   0  0  0  0  0  0  0  0  0  0  0  0
    1.0961   -3.9531    0.0000 C   0  0  0  0  0  0  0  0  0  0  0  0
   -0.2031   -4.7031    0.0000 C   0  0  0  0  0  0  0  0  0  0  0  0
   -0.2031   -6.2031    0.0000 C   0  0  0  0  0  0  0  0  0  0  0  0
    1.0961   -6.9531    0.0000 C   0  0  0  0  0  0  0  0  0  0  0  0
    2.3949   -6.2031    0.0000 C   0  0  0  0  0  0  0  0  0  0  0  0
    2.3949   -4.7031    0.0000 C   0  0  0  0  0  0  0  0  0  0  0  0
    3.6941   -3.9531    0.0000 O   0  0  0  0  0  0  0  0  0  0  0  0
    4.9931   -4.7031    0.0000 C   0  0  0  0  0  0  0  0  0  0  0  0
    6.2922   -3.9531    0.0000 C   0  0  0  0  0  0  0  0  0  0  0  0
    6.2922   -2.4531    0.0000 C   0  0  0  0  0  0  0  0  0  0  0  0
    7.5912   -1.7031    0.0000 N   0  0  0  0  0  0  0  0  0  0  0  0
    8.8902   -2.4531    0.0000 C   0  0  0  0  0  0  0  0  0  0  0  0
    8.8902   -3.9531    0.0000 C   0  0  0  0  0  0  0  0  0  0  0  0
    7.5912   -4.7031    0.0000 O   0  0  0  0  0  0  0  0  0  0  0  0
  1  2  1  0  0  0  0
  2  3  1  0  0  0  0
  3  4  1  0  0  0  0
  5  4  2  0  0  0  0
  4  9  1  0  0  0  0
  6  5  1  0  0  0  0
  7  6  2  0  0  0  0
  8  7  1  0  0  0  0
  9  8  2  0  0  0  0
  9 10  1  0  0  0  0
 10 11  1  0  0  0  0
 11 12  1  0  0  0  0
 13 12  1  0  0  0  0
 12 17  1  0  0  0  0
 14 13  1  0  0  0  0
 15 14  1  0  0  0  0
 16 15  1  0  0  0  0
 17 16  1  0  0  0  0
M  END
> <Inchi_key>
YWPHCCPCQOJSGZ-UHFFFAOYSA-N

> <Source>
Mulliner

> <ID>
HT2180

> <H_MFHB>
0

> <CAS>


> <Cholestasis>


> <Name>
viloxazine

> <Class>
0

$$$$