

  -INDIGO-08031710012D

 22 23  0  0  0  0  0  0  0  0999 V2000
    2.9105   -0.4305    0.0000 C   0  0  0  0  0  0  0  0  0  0  0  0
    2.9105    1.0695    0.0000 C   0  0  0  0  0  0  0  0  0  0  0  0
    4.2095    1.8195    0.0000 C   0  0  0  0  0  0  0  0  0  0  0  0
    5.5084    1.0695    0.0000 C   0  0  0  0  0  0  0  0  0  0  0  0
    6.8077    1.8195    0.0000 C   0  0  0  0  0  0  0  0  0  0  0  0
    6.8077    3.3195    0.0000 C   0  0  0  0  0  0  0  0  0  0  0  0
    8.1066    4.0695    0.0000 C   0  0  0  0  0  0  0  0  0  0  0  0
    9.4056    3.3195    0.0000 C   0  0  0  0  0  0  0  0  0  0  0  0
    9.4056    1.8195    0.0000 C   0  0  0  0  0  0  0  0  0  0  0  0
    8.1066    1.0695    0.0000 C   0  0  0  0  0  0  0  0  0  0  0  0
    1.6115    1.8195    0.0000 N   0  0  0  0  0  0  0  0  0  0  0  0
    0.3123    1.0695    0.0000 C   0  0  0  0  0  0  0  0  0  0  0  0
    0.3123   -0.4305    0.0000 C   0  0  0  0  0  0  0  0  0  0  0  0
   -0.9867    1.8195    0.0000 C   0  0  0  0  0  0  0  0  0  0  0  0
   -0.9867    3.3195    0.0000 O   0  0  0  0  0  0  0  0  0  0  0  0
   -2.2856    1.0695    0.0000 C   0  0  0  0  0  0  0  0  0  0  0  0
   -2.2856   -0.4305    0.0000 C   0  0  0  0  0  0  0  0  0  0  0  0
   -3.5846   -1.1805    0.0000 C   0  0  0  0  0  0  0  0  0  0  0  0
   -4.8838   -0.4305    0.0000 C   0  0  0  0  0  0  0  0  0  0  0  0
   -6.1828   -1.1805    0.0000 O   0  0  0  0  0  0  0  0  0  0  0  0
   -4.8838    1.0695    0.0000 C   0  0  0  0  0  0  0  0  0  0  0  0
   -3.5846    1.8195    0.0000 C   0  0  0  0  0  0  0  0  0  0  0  0
  1  2  1  0  0  0  0
  2  3  1  0  0  0  0
  2 11  1  0  0  0  0
  3  4  1  0  0  0  0
  4  5  1  0  0  0  0
  6  5  2  0  0  0  0
  5 10  1  0  0  0  0
  7  6  1  0  0  0  0
  8  7  2  0  0  0  0
  9  8  1  0  0  0  0
 10  9  2  0  0  0  0
 11 12  1  0  0  0  0
 12 13  1  0  0  0  0
 12 14  1  0  0  0  0
 14 15  1  0  0  0  0
 14 16  1  0  0  0  0
 17 16  2  0  0  0  0
 16 22  1  0  0  0  0
 18 17  1  0  0  0  0
 19 18  2  0  0  0  0
 19 20  1  0  0  0  0
 21 19  1  0  0  0  0
 22 21  2  0  0  0  0
M  END
> <Inchi_key>
PTGXAUBQBSGPKF-UHFFFAOYSA-N

> <Source>
Mulliner

> <ID>
HT3352

> <H_MFHB>
0

> <CAS>


> <Cholestasis>


> <Name>


> <Class>
0


$$$$