

  -INDIGO-08031710012D

 33 34  0  0  0  0  0  0  0  0999 V2000
    5.1977   -0.2378    0.0000 C   0  0  0  0  0  0  0  0  0  0  0  0
    3.7039   -0.1008    0.0000 C   0  0  0  0  0  0  0  0  0  0  0  0
    4.5262    1.1537    0.0000 C   0  0  0  0  0  0  0  0  0  0  0  0
    3.3860   -1.5667    0.0000 S   0  0  0  0  0  0  0  0  0  0  0  0
    1.8935   -1.7173    0.0000 C   0  0  0  0  0  0  0  0  0  0  0  0
    1.2892   -0.3445    0.0000 N   0  0  0  0  0  0  0  0  0  0  0  0
    2.4081    0.6547    0.0000 C   0  0  0  0  0  0  0  0  0  0  0  0
    2.2575    2.1471    0.0000 C   0  0  0  0  0  0  0  0  0  0  0  0
    3.4748    3.0236    0.0000 O   0  0  0  0  0  0  0  0  0  0  0  0
    0.8896    2.7629    0.0000 O   0  0  0  0  0  0  0  0  0  0  0  0
    1.1379   -3.0133    0.0000 C   0  0  0  0  0  0  0  0  0  0  0  0
   -0.3619   -3.0069    0.0000 N   0  0  0  0  0  0  0  0  0  0  0  0
   -1.1175   -4.3028    0.0000 C   0  0  0  0  0  0  0  0  0  0  0  0
   -0.3727   -5.6049    0.0000 O   0  0  0  0  0  0  0  0  0  0  0  0
   -2.6175   -4.2965    0.0000 C   0  0  0  0  0  0  0  0  0  0  0  0
   -3.3728   -5.5924    0.0000 C   0  0  0  0  0  0  0  0  0  0  0  0
   -4.8729   -5.5861    0.0000 C   0  0  0  0  0  0  0  0  0  0  0  0
   -5.6282   -6.8820    0.0000 C   0  0  0  0  0  0  0  0  0  0  0  0
   -4.8837   -8.1841    0.0000 C   0  0  0  0  0  0  0  0  0  0  0  0
   -3.3837   -8.1904    0.0000 C   0  0  0  0  0  0  0  0  0  0  0  0
   -2.6281   -6.8945    0.0000 C   0  0  0  0  0  0  0  0  0  0  0  0
    1.8826   -4.3153    0.0000 C   0  0  0  0  0  0  0  0  0  0  0  0
    1.1273   -5.6112    0.0000 O   0  0  0  0  0  0  0  0  0  0  0  0
    3.3827   -4.3216    0.0000 N   0  0  0  0  0  0  0  0  0  0  0  0
    4.1272   -5.6237    0.0000 C   0  0  0  0  0  0  0  0  0  0  0  0
    5.6272   -5.6300    0.0000 C   0  0  0  0  0  0  0  0  0  0  0  0
    6.3717   -6.9321    0.0000 C   0  0  0  0  0  0  0  0  0  0  0  0
    7.8718   -6.9384    0.0000 C   0  0  0  0  0  0  0  0  0  0  0  0
    8.6162   -8.2407    0.0000 C   0  0  0  0  0  0  0  0  0  0  0  0
    7.8609   -9.5366    0.0000 N   0  0  0  0  0  0  0  0  0  0  0  0
   10.1163   -8.2468    0.0000 C   0  0  0  0  0  0  0  0  0  0  0  0
   10.8716   -6.9511    0.0000 O   0  0  0  0  0  0  0  0  0  0  0  0
   10.8608   -9.5491    0.0000 O   0  0  0  0  0  0  0  0  0  0  0  0
  1  2  1  0  0  0  0
  2  3  1  0  0  0  0
  4  2  1  0  0  0  0
  2  7  1  0  0  0  0
  5  4  1  0  0  0  0
  6  5  1  0  0  0  0
  5 11  1  0  0  0  0
  7  6  1  0  0  0  0
  7  8  1  0  0  0  0
  8  9  2  0  0  0  0
  8 10  1  0  0  0  0
 11 12  1  0  0  0  0
 11 22  1  0  0  0  0
 12 13  1  0  0  0  0
 13 14  2  0  0  0  0
 13 15  1  0  0  0  0
 15 16  1  0  0  0  0
 17 16  2  0  0  0  0
 16 21  1  0  0  0  0
 18 17  1  0  0  0  0
 19 18  2  0  0  0  0
 20 19  1  0  0  0  0
 21 20  2  0  0  0  0
 22 23  2  0  0  0  0
 22 24  1  0  0  0  0
 24 25  1  0  0  0  0
 25 26  1  0  0  0  0
 26 27  1  0  0  0  0
 27 28  1  0  0  0  0
 28 29  1  0  0  0  0
 29 30  1  0  0  0  0
 29 31  1  0  0  0  0
 31 32  2  0  0  0  0
 31 33  1  0  0  0  0
M  END
> <Inchi_key>
WJEDAXQWYZLHII-UHFFFAOYSA-N

> <Source>
Mulliner

> <ID>
HT0261

> <H_MFHB>
0

> <CAS>


> <Cholestasis>


> <Name>
benzylpenicilloyl polylysine

> <Class>
0


$$$$