

  -INDIGO-08031710012D

 15 16  0  0  0  0  0  0  0  0999 V2000
    0.8001   -1.3856    0.0000 N   0  0  0  0  0  0  0  0  0  0  0  0
    1.5500   -0.0866    0.0000 C   0  0  0  0  0  0  0  0  0  0  0  0
    3.0500   -0.0866    0.0000 C   0  0  0  0  0  0  0  0  0  0  0  0
    3.8001    1.2124    0.0000 C   0  0  0  0  0  0  0  0  0  0  0  0
    3.0500    2.5115    0.0000 N   0  0  0  0  0  0  0  0  0  0  0  0
    1.5500    2.5115    0.0000 C   0  0  0  0  0  0  0  0  0  0  0  0
    0.8001    3.8105    0.0000 N   0  0  0  0  0  0  0  0  0  0  0  0
    0.8001    1.2124    0.0000 N   0  0  0  0  0  0  0  0  0  0  0  0
   -0.7000    1.2124    0.0000 O   0  0  0  0  0  0  0  0  0  0  0  0
    5.3000    1.2124    0.0000 N   0  0  0  0  0  0  0  0  0  0  0  0
    6.0500   -0.0866    0.0000 C   0  0  0  0  0  0  0  0  0  0  0  0
    7.5500   -0.0866    0.0000 C   0  0  0  0  0  0  0  0  0  0  0  0
    8.3000    1.2124    0.0000 C   0  0  0  0  0  0  0  0  0  0  0  0
    7.5500    2.5115    0.0000 C   0  0  0  0  0  0  0  0  0  0  0  0
    6.0500    2.5115    0.0000 C   0  0  0  0  0  0  0  0  0  0  0  0
  1  2  1  0  0  0  0
  3  2  2  0  0  0  0
  2  8  1  0  0  0  0
  4  3  1  0  0  0  0
  5  4  2  0  0  0  0
  4 10  1  0  0  0  0
  6  5  1  0  0  0  0
  6  7  1  0  0  0  0
  8  6  2  0  0  0  0
  8  9  1  0  0  0  0
 11 10  1  0  0  0  0
 10 15  1  0  0  0  0
 12 11  1  0  0  0  0
 13 12  1  0  0  0  0
 14 13  1  0  0  0  0
 15 14  1  0  0  0  0
M  CHG  2   8   1   9  -1
M  END
> <Inchi_key>
ZFMITUMMTDLWHR-UHFFFAOYSA-N

> <Source>
Mulliner , Kotsampasakou

> <ID>
EK0356;HT1408

> <H_MFHB>
0

> <CAS>


> <Cholestasis>
0

> <Name>
minoxidil

> <Class>
0


$$$$