

  -INDIGO-08031710012D

 24 26  0  0  0  0  0  0  0  0999 V2000
   -0.6962    2.5981    0.0000 C   0  0  0  0  0  0  0  0  0  0  0  0
    0.6029    1.8481    0.0000 C   0  0  0  0  0  0  0  0  0  0  0  0
    1.9019    2.5981    0.0000 C   0  0  0  0  0  0  0  0  0  0  0  0
    3.2010    1.8481    0.0000 C   0  0  0  0  0  0  0  0  0  0  0  0
    4.4999    2.5981    0.0000 C   0  0  0  0  0  0  0  0  0  0  0  0
    4.4999    4.0982    0.0000 C   0  0  0  0  0  0  0  0  0  0  0  0
    3.2010    4.8481    0.0000 C   0  0  0  0  0  0  0  0  0  0  0  0
    3.2010    6.3481    0.0000 C   0  0  0  0  0  0  0  0  0  0  0  0
    4.4999    7.0982    0.0000 C   0  0  0  0  0  0  0  0  0  0  0  0
    4.4999    8.5981    0.0000 N   0  0  0  0  0  0  0  0  0  0  0  0
    5.7990    6.3481    0.0000 C   0  0  0  0  0  0  0  0  0  0  0  0
    5.7990    4.8481    0.0000 C   0  0  0  0  0  0  0  0  0  0  0  0
    5.7990    1.8481    0.0000 C   0  0  0  0  0  0  0  0  0  0  0  0
    5.7990    0.3481    0.0000 C   0  0  0  0  0  0  0  0  0  0  0  0
    7.0981   -0.4019    0.0000 C   0  0  0  0  0  0  0  0  0  0  0  0
    8.3971    0.3481    0.0000 C   0  0  0  0  0  0  0  0  0  0  0  0
    9.6962   -0.4019    0.0000 N   0  0  0  0  0  0  0  0  0  0  0  0
    8.3971    1.8481    0.0000 C   0  0  0  0  0  0  0  0  0  0  0  0
    9.6962    2.5981    0.0000 C   0  0  0  0  0  0  0  0  0  0  0  0
    7.0981    2.5981    0.0000 C   0  0  0  0  0  0  0  0  0  0  0  0
    3.2010    0.3481    0.0000 C   0  0  0  0  0  0  0  0  0  0  0  0
    1.9019   -0.4019    0.0000 C   0  0  0  0  0  0  0  0  0  0  0  0
    0.6029    0.3481    0.0000 C   0  0  0  0  0  0  0  0  0  0  0  0
   -0.6962   -0.4019    0.0000 N   0  0  0  0  0  0  0  0  0  0  0  0
  1  2  1  0  0  0  0
  3  2  2  0  0  0  0
  2 23  1  0  0  0  0
  4  3  1  0  0  0  0
  4  5  2  0  0  0  0
 21  4  1  0  0  0  0
  5  6  1  0  0  0  0
  5 13  1  0  0  0  0
  7  6  2  0  0  0  0
  6 12  1  0  0  0  0
  8  7  1  0  0  0  0
  9  8  2  0  0  0  0
  9 10  1  0  0  0  0
 11  9  1  0  0  0  0
 12 11  2  0  0  0  0
 14 13  2  0  0  0  0
 13 20  1  0  0  0  0
 15 14  1  0  0  0  0
 16 15  2  0  0  0  0
 16 17  1  0  0  0  0
 18 16  1  0  0  0  0
 18 19  1  0  0  0  0
 20 18  2  0  0  0  0
 22 21  2  0  0  0  0
 23 22  1  0  0  0  0
 23 24  2  0  0  0  0
M  END
> <Inchi_key>
RJAMLLTWCQCKGI-XFFNOMDFSA-N

> <Source>
Mulliner

> <ID>
HT3442

> <H_MFHB>
0

> <CAS>


> <Cholestasis>


> <Name>


> <Class>
0


$$$$