
  -INDIGO-08031710012D

 28 30  0  0  0  0  0  0  0  0999 V2000
   10.3181   -3.9352    0.0000 C   0  0  0  0  0  0  0  0  0  0  0  0
    9.1990   -2.9363    0.0000 C   0  0  0  0  0  0  0  0  0  0  0  0
    9.5044   -1.4676    0.0000 N   0  0  0  0  0  0  0  0  0  0  0  0
   10.9291   -0.9980    0.0000 C   0  0  0  0  0  0  0  0  0  0  0  0
   12.0480   -1.9968    0.0000 C   0  0  0  0  0  0  0  0  0  0  0  0
   13.4727   -1.5272    0.0000 O   0  0  0  0  0  0  0  0  0  0  0  0
    8.3855   -0.4690    0.0000 C   0  0  0  0  0  0  0  0  0  0  0  0
    6.9608   -0.9386    0.0000 C   0  0  0  0  0  0  0  0  0  0  0  0
    5.8419    0.0602    0.0000 N   0  0  0  0  0  0  0  0  0  0  0  0
    5.9921    1.5529    0.0000 C   0  0  0  0  0  0  0  0  0  0  0  0
    7.2880    2.3084    0.0000 C   0  0  0  0  0  0  0  0  0  0  0  0
    7.2816    3.8084    0.0000 C   0  0  0  0  0  0  0  0  0  0  0  0
    5.9793    4.5527    0.0000 C   0  0  0  0  0  0  0  0  0  0  0  0
    5.9728    6.0527    0.0000 C   0  0  0  0  0  0  0  0  0  0  0  0
    7.2685    6.8083    0.0000 C   0  0  0  0  0  0  0  0  0  0  0  0
    8.5708    6.0639    0.0000 C   0  0  0  0  0  0  0  0  0  0  0  0
    8.5772    4.5640    0.0000 C   0  0  0  0  0  0  0  0  0  0  0  0
    4.6193    2.1570    0.0000 N   0  0  0  0  0  0  0  0  0  0  0  0
    3.6203    1.0379    0.0000 C   0  0  0  0  0  0  0  0  0  0  0  0
    2.1203    1.0314    0.0000 N   0  0  0  0  0  0  0  0  0  0  0  0
    1.3647    2.3271    0.0000 C   0  0  0  0  0  0  0  0  0  0  0  0
    1.3759   -0.2709    0.0000 C   0  0  0  0  0  0  0  0  0  0  0  0
   -0.1239   -0.2775    0.0000 O   0  0  0  0  0  0  0  0  0  0  0  0
    2.1317   -1.5667    0.0000 N   0  0  0  0  0  0  0  0  0  0  0  0
    1.3873   -2.8690    0.0000 C   0  0  0  0  0  0  0  0  0  0  0  0
    3.6315   -1.5603    0.0000 C   0  0  0  0  0  0  0  0  0  0  0  0
    4.3871   -2.8560    0.0000 O   0  0  0  0  0  0  0  0  0  0  0  0
    4.3759   -0.2580    0.0000 C   0  0  0  0  0  0  0  0  0  0  0  0
  1  2  1  0  0  0  0
  2  3  1  0  0  0  0
  3  4  1  0  0  0  0
  3  7  1  0  0  0  0
  4  5  1  0  0  0  0
  5  6  1  0  0  0  0
  7  8  1  0  0  0  0
  8  9  1  0  0  0  0
 10  9  1  0  0  0  0
  9 28  1  0  0  0  0
 10 11  1  0  0  0  0
 18 10  2  0  0  0  0
 11 12  1  0  0  0  0
 13 12  2  0  0  0  0
 12 17  1  0  0  0  0
 14 13  1  0  0  0  0
 15 14  2  0  0  0  0
 16 15  1  0  0  0  0
 17 16  2  0  0  0  0
 19 18  1  0  0  0  0
 20 19  1  0  0  0  0
 19 28  2  0  0  0  0
 20 21  1  0  0  0  0
 22 20  1  0  0  0  0
 22 23  2  0  0  0  0
 24 22  1  0  0  0  0
 24 25  1  0  0  0  0
 26 24  1  0  0  0  0
 26 27  2  0  0  0  0
 28 26  1  0  0  0  0
M  END
> <Inchi_key>
VVUYEFBRTFASAH-UHFFFAOYSA-N

> <Source>
Mulliner

> <ID>
HT3727

> <H_MFHB>
0

> <CAS>


> <Cholestasis>


> <Name>


> <Class>
0

$$$$