
  -INDIGO-08031710012D

 27 28  0  0  0  0  0  0  0  0999 V2000
    0.2986   -0.8132    0.0000 C   0  0  0  0  0  0  0  0  0  0  0  0
    1.4420    0.1577    0.0000 C   0  0  0  0  0  0  0  0  0  0  0  0
    2.8546   -0.3472    0.0000 C   0  0  0  0  0  0  0  0  0  0  0  0
    3.1235   -1.8229    0.0000 O   0  0  0  0  0  0  0  0  0  0  0  0
    3.7078    0.8864    0.0000 N   0  0  0  0  0  0  0  0  0  0  0  0
    3.0661    2.2422    0.0000 C   0  0  0  0  0  0  0  0  0  0  0  0
    1.5710    2.3643    0.0000 C   0  0  0  0  0  0  0  0  0  0  0  0
    0.9293    3.7200    0.0000 C   0  0  0  0  0  0  0  0  0  0  0  0
    1.7825    4.9538    0.0000 C   0  0  0  0  0  0  0  0  0  0  0  0
    3.2775    4.8318    0.0000 C   0  0  0  0  0  0  0  0  0  0  0  0
    3.9193    3.4759    0.0000 C   0  0  0  0  0  0  0  0  0  0  0  0
    5.2029    0.7643    0.0000 C   0  0  0  0  0  0  0  0  0  0  0  0
    6.5659    0.1382    0.0000 C   0  0  0  0  0  0  0  0  0  0  0  0
    7.7897    1.0057    0.0000 C   0  0  0  0  0  0  0  0  0  0  0  0
    7.6504    2.4992    0.0000 N   0  0  0  0  0  0  0  0  0  0  0  0
    8.8741    3.3667    0.0000 C   0  0  0  0  0  0  0  0  0  0  0  0
   10.2372    2.7405    0.0000 C   0  0  0  0  0  0  0  0  0  0  0  0
   11.4610    3.6080    0.0000 C   0  0  0  0  0  0  0  0  0  0  0  0
   11.3217    5.1015    0.0000 O   0  0  0  0  0  0  0  0  0  0  0  0
   12.8240    2.9819    0.0000 O   0  0  0  0  0  0  0  0  0  0  0  0
   14.0478    3.8492    0.0000 C   0  0  0  0  0  0  0  0  0  0  0  0
    6.2873    3.1252    0.0000 C   0  0  0  0  0  0  0  0  0  0  0  0
    5.0636    2.2578    0.0000 C   0  0  0  0  0  0  0  0  0  0  0  0
    5.0808   -0.7306    0.0000 C   0  0  0  0  0  0  0  0  0  0  0  0
    3.7250   -1.3724    0.0000 O   0  0  0  0  0  0  0  0  0  0  0  0
    6.3144   -1.5840    0.0000 O   0  0  0  0  0  0  0  0  0  0  0  0
    6.1923   -3.0790    0.0000 C   0  0  0  0  0  0  0  0  0  0  0  0
  1  2  1  0  0  0  0
  2  3  1  0  0  0  0
  3  4  2  0  0  0  0
  3  5  1  0  0  0  0
  5  6  1  0  0  0  0
  5 12  1  0  0  0  0
  7  6  2  0  0  0  0
  6 11  1  0  0  0  0
  8  7  1  0  0  0  0
  9  8  2  0  0  0  0
 10  9  1  0  0  0  0
 11 10  2  0  0  0  0
 13 12  1  0  0  0  0
 12 23  1  0  0  0  0
 12 24  1  0  0  0  0
 14 13  1  0  0  0  0
 15 14  1  0  0  0  0
 15 16  1  0  0  0  0
 22 15  1  0  0  0  0
 16 17  1  0  0  0  0
 17 18  1  0  0  0  0
 18 19  2  0  0  0  0
 18 20  1  0  0  0  0
 20 21  1  0  0  0  0
 23 22  1  0  0  0  0
 24 25  2  0  0  0  0
 24 26  1  0  0  0  0
 26 27  1  0  0  0  0
M  END
> <Inchi_key>
ZTVQQQVZCWLTDF-UHFFFAOYSA-N

> <Source>
Mulliner

> <ID>
HT1808

> <H_MFHB>
0

> <CAS>


> <Cholestasis>


> <Name>
remifentanil hydrochloride;remifentanil

> <Class>
0

$$$$