

  -INDIGO-08031710012D

 34 37  0  0  0  0  0  0  0  0999 V2000
   11.5727  -11.5726    0.0000 C   0  0  0  0  0  0  0  0  0  0  0  0
   11.5727  -10.0727    0.0000 O   0  0  0  0  0  0  0  0  0  0  0  0
   10.2736   -9.3228    0.0000 C   0  0  0  0  0  0  0  0  0  0  0  0
    8.9745  -10.0727    0.0000 C   0  0  0  0  0  0  0  0  0  0  0  0
    7.6756   -9.3228    0.0000 C   0  0  0  0  0  0  0  0  0  0  0  0
    7.6756   -7.8226    0.0000 C   0  0  0  0  0  0  0  0  0  0  0  0
    6.3765   -7.0727    0.0000 C   0  0  0  0  0  0  0  0  0  0  0  0
    5.0774   -7.8226    0.0000 N   0  0  0  0  0  0  0  0  0  0  0  0
    3.7786   -7.0727    0.0000 C   0  0  0  0  0  0  0  0  0  0  0  0
    3.7786   -5.5727    0.0000 N   0  0  0  0  0  0  0  0  0  0  0  0
    2.4795   -4.8228    0.0000 C   0  0  0  0  0  0  0  0  0  0  0  0
    1.1804   -5.5727    0.0000 N   0  0  0  0  0  0  0  0  0  0  0  0
    1.1804   -7.0727    0.0000 C   0  0  0  0  0  0  0  0  0  0  0  0
    2.4795   -7.8226    0.0000 C   0  0  0  0  0  0  0  0  0  0  0  0
    2.4795   -9.3228    0.0000 C   0  0  0  0  0  0  0  0  0  0  0  0
    3.7786  -10.0727    0.0000 O   0  0  0  0  0  0  0  0  0  0  0  0
    1.1804  -10.0727    0.0000 N   0  0  0  0  0  0  0  0  0  0  0  0
    1.1804  -11.5726    0.0000 C   0  0  0  0  0  0  0  0  0  0  0  0
   -0.1187  -12.3226    0.0000 C   0  0  0  0  0  0  0  0  0  0  0  0
   -1.4176  -11.5726    0.0000 N   0  0  0  0  0  0  0  0  0  0  0  0
   -2.7167  -12.3226    0.0000 C   0  0  0  0  0  0  0  0  0  0  0  0
   -2.7167  -13.8227    0.0000 C   0  0  0  0  0  0  0  0  0  0  0  0
   -1.4176  -14.5727    0.0000 C   0  0  0  0  0  0  0  0  0  0  0  0
   -0.1187  -13.8227    0.0000 N   0  0  0  0  0  0  0  0  0  0  0  0
    2.4795   -3.3226    0.0000 N   0  0  0  0  0  0  0  0  0  0  0  0
    3.6929   -2.4411    0.0000 C   0  0  0  0  0  0  0  0  0  0  0  0
    3.2293   -1.0144    0.0000 C   0  0  0  0  0  0  0  0  0  0  0  0
    1.7294   -1.0144    0.0000 C   0  0  0  0  0  0  0  0  0  0  0  0
    1.2658   -2.4411    0.0000 C   0  0  0  0  0  0  0  0  0  0  0  0
   -0.1608   -2.9045    0.0000 C   0  0  0  0  0  0  0  0  0  0  0  0
   -1.2754   -1.9007    0.0000 O   0  0  0  0  0  0  0  0  0  0  0  0
    8.9745   -7.0727    0.0000 C   0  0  0  0  0  0  0  0  0  0  0  0
   10.2736   -7.8226    0.0000 C   0  0  0  0  0  0  0  0  0  0  0  0
   11.5727   -7.0727    0.0000 Cl  0  0  0  0  0  0  0  0  0  0  0  0
  1  2  1  0  0  0  0
  2  3  1  0  0  0  0
  4  3  2  0  0  0  0
  3 33  1  0  0  0  0
  5  4  1  0  0  0  0
  6  5  2  0  0  0  0
  6  7  1  0  0  0  0
 32  6  1  0  0  0  0
  7  8  1  0  0  0  0
  8  9  1  0  0  0  0
 10  9  2  0  0  0  0
  9 14  1  0  0  0  0
 11 10  1  0  0  0  0
 12 11  2  0  0  0  0
 11 25  1  0  0  0  0
 13 12  1  0  0  0  0
 14 13  2  0  0  0  0
 14 15  1  0  0  0  0
 15 16  2  0  0  0  0
 15 17  1  0  0  0  0
 17 18  1  0  0  0  0
 18 19  1  0  0  0  0
 20 19  2  0  0  0  0
 19 24  1  0  0  0  0
 21 20  1  0  0  0  0
 22 21  2  0  0  0  0
 23 22  1  0  0  0  0
 24 23  2  0  0  0  0
 26 25  1  0  0  0  0
 25 29  1  0  0  0  0
 27 26  1  0  0  0  0
 28 27  1  0  0  0  0
 29 28  1  0  0  0  0
 29 30  1  0  0  0  0
 30 31  1  0  0  0  0
 33 32  2  0  0  0  0
 33 34  1  0  0  0  0
M  END
> <Inchi_key>
WEAJZXNPAWBCOA-UHFFFAOYSA-N

> <Source>
Mulliner

> <ID>
HT0205

> <H_MFHB>
0

> <CAS>


> <Cholestasis>


> <Name>
avanafil

> <Class>
0


$$$$