

  -INDIGO-08031710012D

 23 22  0  0  0  0  0  0  0  0999 V2000
    0.0000    0.0000    0.0000 C   0  0  0  0  0  0  0  0  0  0  0  0
    1.5000    0.0000    0.0000 C   0  0  0  0  0  0  0  0  0  0  0  0
    2.2500   -1.2990    0.0000 C   0  0  0  0  0  0  0  0  0  0  0  0
    3.7501   -1.2990    0.0000 C   0  0  0  0  0  0  0  0  0  0  0  0
    4.5001   -2.5981    0.0000 C   0  0  0  0  0  0  0  0  0  0  0  0
    6.0001   -2.5981    0.0000 C   0  0  0  0  0  0  0  0  0  0  0  0
    6.7501   -3.8971    0.0000 C   0  0  0  0  0  0  0  0  0  0  0  0
    8.2501   -3.8971    0.0000 C   0  0  0  0  0  0  0  0  0  0  0  0
    9.0001   -5.1962    0.0000 C   0  0  0  0  0  0  0  0  0  0  0  0
   10.5002   -5.1962    0.0000 C   0  0  0  0  0  0  0  0  0  0  0  0
   11.2502   -3.8971    0.0000 C   0  0  0  0  0  0  0  0  0  0  0  0
   12.7498   -3.8971    0.0000 C   0  0  0  0  0  0  0  0  0  0  0  0
   13.4998   -2.5981    0.0000 C   0  0  0  0  0  0  0  0  0  0  0  0
   14.9999   -2.5981    0.0000 C   0  0  0  0  0  0  0  0  0  0  0  0
   15.7499   -1.2990    0.0000 C   0  0  0  0  0  0  0  0  0  0  0  0
   17.2499   -1.2990    0.0000 C   0  0  0  0  0  0  0  0  0  0  0  0
   17.9999    0.0000    0.0000 C   0  0  0  0  0  0  0  0  0  0  0  0
   19.4999    0.0000    0.0000 C   0  0  0  0  0  0  0  0  0  0  0  0
   20.2499   -1.2990    0.0000 O   0  0  0  0  0  0  0  0  0  0  0  0
   20.2499    1.2990    0.0000 O   0  0  0  0  0  0  0  0  0  0  0  0
   21.7500    1.2990    0.0000 C   0  0  0  0  0  0  0  0  0  0  0  0
   22.5000    2.5981    0.0000 C   0  0  0  0  0  0  0  0  0  0  0  0
   24.0000    2.5981    0.0000 N   0  0  0  0  0  0  0  0  0  0  0  0
  1  2  1  0  0  0  0
  2  3  1  0  0  0  0
  3  4  1  0  0  0  0
  4  5  1  0  0  0  0
  5  6  1  0  0  0  0
  6  7  1  0  0  0  0
  7  8  1  0  0  0  0
  8  9  1  0  0  0  0
  9 10  2  0  0  0  0
 10 11  1  0  0  0  0
 11 12  1  0  0  0  0
 12 13  1  0  0  0  0
 13 14  1  0  0  0  0
 14 15  1  0  0  0  0
 15 16  1  0  0  0  0
 16 17  1  0  0  0  0
 17 18  1  0  0  0  0
 18 19  2  0  0  0  0
 18 20  1  0  0  0  0
 20 21  1  0  0  0  0
 21 22  1  0  0  0  0
 22 23  1  0  0  0  0
M  END
> <Inchi_key>
VPHOSDZKGZRSAI-KTKRTIGZSA-N

> <Source>
Mulliner

> <ID>
HT3482

> <H_MFHB>
0

> <CAS>


> <Cholestasis>


> <Name>


> <Class>
0


$$$$