
  -INDIGO-08031710012D

 20 21  0  0  0  0  0  0  0  0999 V2000
   11.9400   -3.1993    0.0000 C   0  0  0  0  0  0  0  0  0  0  0  0
   10.6411   -2.4493    0.0000 N   0  0  0  0  0  0  0  0  0  0  0  0
   10.6411   -0.9493    0.0000 C   0  0  0  0  0  0  0  0  0  0  0  0
    9.3420   -3.1993    0.0000 C   0  0  0  0  0  0  0  0  0  0  0  0
    9.3420   -4.6993    0.0000 C   0  0  0  0  0  0  0  0  0  0  0  0
    8.0429   -5.4493    0.0000 C   0  0  0  0  0  0  0  0  0  0  0  0
    6.7440   -4.6993    0.0000 C   0  0  0  0  0  0  0  0  0  0  0  0
    6.7440   -3.1993    0.0000 C   0  0  0  0  0  0  0  0  0  0  0  0
    8.0429   -2.4493    0.0000 C   0  0  0  0  0  0  0  0  0  0  0  0
    5.4449   -5.4493    0.0000 N   0  0  0  0  0  0  0  0  0  0  0  0
    4.1458   -4.6993    0.0000 N   0  0  0  0  0  0  0  0  0  0  0  0
    2.8469   -5.4493    0.0000 C   0  0  0  0  0  0  0  0  0  0  0  0
    2.8469   -6.9493    0.0000 C   0  0  0  0  0  0  0  0  0  0  0  0
    1.5476   -7.6993    0.0000 C   0  0  0  0  0  0  0  0  0  0  0  0
    0.2487   -6.9493    0.0000 C   0  0  0  0  0  0  0  0  0  0  0  0
    0.2487   -5.4493    0.0000 C   0  0  0  0  0  0  0  0  0  0  0  0
    1.5476   -4.6993    0.0000 C   0  0  0  0  0  0  0  0  0  0  0  0
    1.5476   -3.1993    0.0000 C   0  0  0  0  0  0  0  0  0  0  0  0
    2.8469   -2.4493    0.0000 O   0  0  0  0  0  0  0  0  0  0  0  0
    0.2487   -2.4493    0.0000 O   0  0  0  0  0  0  0  0  0  0  0  0
  1  2  1  0  0  0  0
  2  3  1  0  0  0  0
  2  4  1  0  0  0  0
  5  4  2  0  0  0  0
  4  9  1  0  0  0  0
  6  5  1  0  0  0  0
  7  6  2  0  0  0  0
  8  7  1  0  0  0  0
  7 10  1  0  0  0  0
  9  8  2  0  0  0  0
 10 11  2  0  0  0  0
 11 12  1  0  0  0  0
 13 12  2  0  0  0  0
 12 17  1  0  0  0  0
 14 13  1  0  0  0  0
 15 14  2  0  0  0  0
 16 15  1  0  0  0  0
 17 16  2  0  0  0  0
 17 18  1  0  0  0  0
 18 19  2  0  0  0  0
 18 20  1  0  0  0  0
M  END
> <Inchi_key>
CEQFOVLGLXCDCX-WUKNDPDISA-N

> <Source>
Mulliner

> <ID>
HT3187

> <H_MFHB>
0

> <CAS>


> <Cholestasis>


> <Name>


> <Class>
0

$$$$