
  -INDIGO-08031709442D

 28 31  0  0  0  0  0  0  0  0999 V2000
    7.4732    4.3147    0.0000 Cl  0  0  0  0  0  0  0  0  0  0  0  0
    6.7232    3.0155    0.0000 C   0  0  0  0  0  0  0  0  0  0  0  0
    7.4732    1.7167    0.0000 C   0  0  0  0  0  0  0  0  0  0  0  0
    6.7232    0.4175    0.0000 C   0  0  0  0  0  0  0  0  0  0  0  0
    5.2233    0.4175    0.0000 C   0  0  0  0  0  0  0  0  0  0  0  0
    4.4731    1.7167    0.0000 C   0  0  0  0  0  0  0  0  0  0  0  0
    5.2233    3.0155    0.0000 C   0  0  0  0  0  0  0  0  0  0  0  0
    4.4731    4.3147    0.0000 C   0  0  0  0  0  0  0  0  0  0  0  0
    2.9732    4.3147    0.0000 O   0  0  0  0  0  0  0  0  0  0  0  0
    2.2232    5.6137    0.0000 C   0  0  0  0  0  0  0  0  0  0  0  0
    2.9732    6.9128    0.0000 C   0  0  0  0  0  0  0  0  0  0  0  0
    4.4731    6.9128    0.0000 C   0  0  0  0  0  0  0  0  0  0  0  0
    5.2233    8.2118    0.0000 O   0  0  0  0  0  0  0  0  0  0  0  0
    5.2233    5.6137    0.0000 C   0  0  0  0  0  0  0  0  0  0  0  0
    2.2232    8.2118    0.0000 C   0  0  0  0  0  0  0  0  0  0  0  0
    2.9732    9.5108    0.0000 O   0  0  0  0  0  0  0  0  0  0  0  0
    0.7233    8.2118    0.0000 C   0  0  0  0  0  0  0  0  0  0  0  0
   -0.0269    6.9128    0.0000 C   0  0  0  0  0  0  0  0  0  0  0  0
   -1.5268    6.9128    0.0000 O   0  0  0  0  0  0  0  0  0  0  0  0
    0.7233    5.6137    0.0000 C   0  0  0  0  0  0  0  0  0  0  0  0
   -0.0269    4.3147    0.0000 C   0  0  0  0  0  0  0  0  0  0  0  0
    0.7233    3.0155    0.0000 C   0  0  0  0  0  0  0  0  0  0  0  0
   -0.0269    1.7167    0.0000 C   0  0  0  0  0  0  0  0  0  0  0  0
   -1.5268    1.7167    0.0000 N   0  0  0  0  0  0  0  0  0  0  0  0
   -2.2768    3.0155    0.0000 C   0  0  0  0  0  0  0  0  0  0  0  0
   -1.5268    4.3147    0.0000 C   0  0  0  0  0  0  0  0  0  0  0  0
   -2.2768    5.6137    0.0000 O   0  0  0  0  0  0  0  0  0  0  0  0
   -2.2768    0.4175    0.0000 C   0  0  0  0  0  0  0  0  0  0  0  0
  1  2  1  0  0  0  0
  3  2  2  0  0  0  0
  2  7  1  0  0  0  0
  4  3  1  0  0  0  0
  5  4  2  0  0  0  0
  6  5  1  0  0  0  0
  7  6  2  0  0  0  0
  7  8  1  0  0  0  0
  9  8  1  0  0  0  0
  8 14  2  0  0  0  0
 10  9  1  0  0  0  0
 10 11  2  0  0  0  0
 20 10  1  0  0  0  0
 12 11  1  0  0  0  0
 11 15  1  0  0  0  0
 12 13  2  0  0  0  0
 14 12  1  0  0  0  0
 15 16  1  0  0  0  0
 15 17  2  0  0  0  0
 17 18  1  0  0  0  0
 18 19  1  0  0  0  0
 18 20  2  0  0  0  0
 20 21  1  0  0  0  0
 22 21  1  0  0  0  0
 21 26  1  0  0  0  0
 23 22  1  0  0  0  0
 24 23  1  0  0  0  0
 25 24  1  0  0  0  0
 24 28  1  0  0  0  0
 26 25  1  0  0  0  0
 26 27  1  0  0  0  0
M  END
> <Inchi_key>
BIIVYFLTOXDAOV-UHFFFAOYSA-N

> <Source>
Kotsampasakou

> <ID>
EK0021

> <H_MFHB>


> <CAS>


> <Cholestasis>
0

> <Name>
alvocidib (flavopirirdol)

> <Class>
0

$$$$