
  -INDIGO-08031710012D

 31 33  0  0  0  0  0  0  0  0999 V2000
   14.9517    8.6323    0.0000 C   0  0  0  0  0  0  0  0  0  0  0  0
   14.2015    7.3333    0.0000 O   0  0  0  0  0  0  0  0  0  0  0  0
   14.9517    6.0342    0.0000 C   0  0  0  0  0  0  0  0  0  0  0  0
   16.4517    6.0342    0.0000 C   0  0  0  0  0  0  0  0  0  0  0  0
   17.2016    4.7351    0.0000 C   0  0  0  0  0  0  0  0  0  0  0  0
   16.4517    3.4362    0.0000 C   0  0  0  0  0  0  0  0  0  0  0  0
   14.9517    3.4362    0.0000 C   0  0  0  0  0  0  0  0  0  0  0  0
   14.2015    4.7351    0.0000 C   0  0  0  0  0  0  0  0  0  0  0  0
   12.7017    4.7351    0.0000 O   0  0  0  0  0  0  0  0  0  0  0  0
   11.9515    3.4362    0.0000 C   0  0  0  0  0  0  0  0  0  0  0  0
   10.4515    3.4362    0.0000 C   0  0  0  0  0  0  0  0  0  0  0  0
    9.7016    4.7351    0.0000 O   0  0  0  0  0  0  0  0  0  0  0  0
    9.7016    2.1371    0.0000 C   0  0  0  0  0  0  0  0  0  0  0  0
    8.2015    2.1371    0.0000 N   0  0  0  0  0  0  0  0  0  0  0  0
    7.4517    0.8381    0.0000 C   0  0  0  0  0  0  0  0  0  0  0  0
    5.9516    0.8381    0.0000 C   0  0  0  0  0  0  0  0  0  0  0  0
    5.2017    2.1371    0.0000 N   0  0  0  0  0  0  0  0  0  0  0  0
    3.7017    2.1371    0.0000 C   0  0  0  0  0  0  0  0  0  0  0  0
    2.9515    3.4362    0.0000 C   0  0  0  0  0  0  0  0  0  0  0  0
    3.7017    4.7351    0.0000 O   0  0  0  0  0  0  0  0  0  0  0  0
    1.4517    3.4362    0.0000 N   0  0  0  0  0  0  0  0  0  0  0  0
    0.7015    4.7351    0.0000 C   0  0  0  0  0  0  0  0  0  0  0  0
   -0.7985    4.7351    0.0000 C   0  0  0  0  0  0  0  0  0  0  0  0
   -1.5484    3.4362    0.0000 C   0  0  0  0  0  0  0  0  0  0  0  0
   -1.5484    6.0342    0.0000 C   0  0  0  0  0  0  0  0  0  0  0  0
   -0.7985    7.3333    0.0000 C   0  0  0  0  0  0  0  0  0  0  0  0
    0.7015    7.3333    0.0000 C   0  0  0  0  0  0  0  0  0  0  0  0
    1.4517    6.0342    0.0000 C   0  0  0  0  0  0  0  0  0  0  0  0
    2.9515    6.0342    0.0000 C   0  0  0  0  0  0  0  0  0  0  0  0
    5.9516    3.4362    0.0000 C   0  0  0  0  0  0  0  0  0  0  0  0
    7.4517    3.4362    0.0000 C   0  0  0  0  0  0  0  0  0  0  0  0
  1  2  1  0  0  0  0
  2  3  1  0  0  0  0
  4  3  2  0  0  0  0
  3  8  1  0  0  0  0
  5  4  1  0  0  0  0
  6  5  2  0  0  0  0
  7  6  1  0  0  0  0
  8  7  2  0  0  0  0
  8  9  1  0  0  0  0
  9 10  1  0  0  0  0
 10 11  1  0  0  0  0
 11 12  1  0  0  0  0
 11 13  1  0  0  0  0
 13 14  1  0  0  0  0
 15 14  1  0  0  0  0
 14 31  1  0  0  0  0
 16 15  1  0  0  0  0
 17 16  1  0  0  0  0
 17 18  1  0  0  0  0
 30 17  1  0  0  0  0
 18 19  1  0  0  0  0
 19 20  2  0  0  0  0
 19 21  1  0  0  0  0
 21 22  1  0  0  0  0
 23 22  2  0  0  0  0
 22 28  1  0  0  0  0
 23 24  1  0  0  0  0
 25 23  1  0  0  0  0
 26 25  2  0  0  0  0
 27 26  1  0  0  0  0
 28 27  2  0  0  0  0
 28 29  1  0  0  0  0
 31 30  1  0  0  0  0
M  END
> <Inchi_key>
XKLMZUWKNUAPSZ-UHFFFAOYSA-N

> <Source>
Mulliner

> <ID>
HT1801

> <H_MFHB>
0

> <CAS>


> <Cholestasis>


> <Name>
ranolazine

> <Class>
0

$$$$