
  -INDIGO-08031710012D

  5  4  0  0  0  0  0  0  0  0999 V2000
    3.8785   -1.0392    0.0000 O   0  0  0  0  0  0  0  0  0  0  0  0
    2.5794   -1.7892    0.0000 C   0  0  0  0  0  0  0  0  0  0  0  0
    1.2804   -1.0392    0.0000 C   0  0  0  0  0  0  0  0  0  0  0  0
   -0.0187   -1.7892    0.0000 O   0  0  0  0  0  0  0  0  0  0  0  0
    1.2804    0.4608    0.0000 O   0  0  0  0  0  0  0  0  0  0  0  0
  1  2  1  0  0  0  0
  2  3  1  0  0  0  0
  3  4  2  0  0  0  0
  3  5  1  0  0  0  0
M  END
> <Inchi_key>
AEMRFAOFKBGASW-UHFFFAOYSA-N

> <Source>
Mulliner

> <ID>
HT2339

> <H_MFHB>
0

> <CAS>
79-14-1

> <Cholestasis>


> <Name>


> <Class>
0

$$$$