

  -INDIGO-08031710012D

 19 20  0  0  0  0  0  0  0  0999 V2000
   14.2105   -4.1022    0.0000 O   0  0  0  0  0  0  0  0  0  0  0  0
   12.7104   -4.1022    0.0000 C   0  0  0  0  0  0  0  0  0  0  0  0
   11.9606   -5.4013    0.0000 O   0  0  0  0  0  0  0  0  0  0  0  0
   11.9606   -2.8032    0.0000 C   0  0  0  0  0  0  0  0  0  0  0  0
   10.4605   -2.8032    0.0000 C   0  0  0  0  0  0  0  0  0  0  0  0
    9.7105   -1.5041    0.0000 C   0  0  0  0  0  0  0  0  0  0  0  0
   10.4605   -0.2051    0.0000 O   0  0  0  0  0  0  0  0  0  0  0  0
    8.2104   -1.5041    0.0000 C   0  0  0  0  0  0  0  0  0  0  0  0
    7.4606   -2.8032    0.0000 C   0  0  0  0  0  0  0  0  0  0  0  0
    5.9605   -2.8032    0.0000 C   0  0  0  0  0  0  0  0  0  0  0  0
    5.2105   -1.5041    0.0000 C   0  0  0  0  0  0  0  0  0  0  0  0
    5.9605   -0.2051    0.0000 C   0  0  0  0  0  0  0  0  0  0  0  0
    7.4606   -0.2051    0.0000 C   0  0  0  0  0  0  0  0  0  0  0  0
    3.7104   -1.5041    0.0000 C   0  0  0  0  0  0  0  0  0  0  0  0
    2.9606   -0.2051    0.0000 C   0  0  0  0  0  0  0  0  0  0  0  0
    1.4605   -0.2051    0.0000 C   0  0  0  0  0  0  0  0  0  0  0  0
    0.7105   -1.5041    0.0000 C   0  0  0  0  0  0  0  0  0  0  0  0
    1.4605   -2.8032    0.0000 C   0  0  0  0  0  0  0  0  0  0  0  0
    2.9606   -2.8032    0.0000 C   0  0  0  0  0  0  0  0  0  0  0  0
  1  2  1  0  0  0  0
  2  3  2  0  0  0  0
  2  4  1  0  0  0  0
  4  5  1  0  0  0  0
  5  6  1  0  0  0  0
  6  7  2  0  0  0  0
  6  8  1  0  0  0  0
  9  8  2  0  0  0  0
  8 13  1  0  0  0  0
 10  9  1  0  0  0  0
 11 10  2  0  0  0  0
 12 11  1  0  0  0  0
 11 14  1  0  0  0  0
 13 12  2  0  0  0  0
 15 14  2  0  0  0  0
 14 19  1  0  0  0  0
 16 15  1  0  0  0  0
 17 16  2  0  0  0  0
 18 17  1  0  0  0  0
 19 18  2  0  0  0  0
M  END
> <Inchi_key>
ZPAKPRAICRBAOD-UHFFFAOYSA-N

> <Source>
Mulliner

> <ID>
HT0854

> <H_MFHB>
0

> <CAS>


> <Cholestasis>


> <Name>
fenbufen

> <Class>
0


$$$$