
  -INDIGO-08031710012D

  9  8  0  0  0  0  0  0  0  0999 V2000
    9.2408   -2.1427    0.0000 N   0  0  0  0  0  0  0  0  0  0  0  0
    7.9418   -2.8927    0.0000 C   0  0  0  0  0  0  0  0  0  0  0  0
    6.6428   -2.1427    0.0000 C   0  0  0  0  0  0  0  0  0  0  0  0
    5.3437   -2.8927    0.0000 C   0  0  0  0  0  0  0  0  0  0  0  0
    4.0447   -2.1427    0.0000 C   0  0  0  0  0  0  0  0  0  0  0  0
    2.7455   -2.8927    0.0000 C   0  0  0  0  0  0  0  0  0  0  0  0
    1.4467   -2.1427    0.0000 C   0  0  0  0  0  0  0  0  0  0  0  0
    1.4467   -0.6427    0.0000 O   0  0  0  0  0  0  0  0  0  0  0  0
    0.1475   -2.8927    0.0000 O   0  0  0  0  0  0  0  0  0  0  0  0
  1  2  1  0  0  0  0
  2  3  1  0  0  0  0
  3  4  1  0  0  0  0
  4  5  1  0  0  0  0
  5  6  1  0  0  0  0
  6  7  1  0  0  0  0
  7  8  2  0  0  0  0
  7  9  1  0  0  0  0
M  END
> <Inchi_key>
SLXKOJJOQWFEFD-UHFFFAOYSA-N

> <Source>
Mulliner , Kotsampasakou

> <ID>
EK0029;HT0133

> <H_MFHB>
0

> <CAS>


> <Cholestasis>
0

> <Name>
aminocaproic acid;epsilon-aminocaproic acid

> <Class>
0

$$$$