

  -INDIGO-08031710012D

 27 29  0  0  0  0  0  0  0  0999 V2000
    0.0000   -3.4641    0.0000 C   0  0  0  0  0  0  0  0  0  0  0  0
    1.5001   -3.4641    0.0000 N   0  0  0  0  0  0  0  0  0  0  0  0
    2.2499   -4.7631    0.0000 C   0  0  0  0  0  0  0  0  0  0  0  0
    3.7501   -4.7631    0.0000 C   0  0  0  0  0  0  0  0  0  0  0  0
    4.5001   -3.4641    0.0000 C   0  0  0  0  0  0  0  0  0  0  0  0
    3.7501   -2.1651    0.0000 C   0  0  0  0  0  0  0  0  0  0  0  0
    2.2499   -2.1651    0.0000 C   0  0  0  0  0  0  0  0  0  0  0  0
    6.0000   -3.4641    0.0000 O   0  0  0  0  0  0  0  0  0  0  0  0
    6.7501   -2.1651    0.0000 C   0  0  0  0  0  0  0  0  0  0  0  0
    6.0000   -0.8659    0.0000 O   0  0  0  0  0  0  0  0  0  0  0  0
    8.2499   -2.1651    0.0000 C   0  0  0  0  0  0  0  0  0  0  0  0
    9.0000   -3.4641    0.0000 O   0  0  0  0  0  0  0  0  0  0  0  0
   10.5001   -3.4641    0.0000 C   0  0  0  0  0  0  0  0  0  0  0  0
   11.2499   -4.7631    0.0000 C   0  0  0  0  0  0  0  0  0  0  0  0
   12.7501   -4.7631    0.0000 C   0  0  0  0  0  0  0  0  0  0  0  0
   13.5001   -3.4641    0.0000 C   0  0  0  0  0  0  0  0  0  0  0  0
   15.0000   -3.4641    0.0000 Cl  0  0  0  0  0  0  0  0  0  0  0  0
   12.7501   -2.1651    0.0000 C   0  0  0  0  0  0  0  0  0  0  0  0
   11.2499   -2.1651    0.0000 C   0  0  0  0  0  0  0  0  0  0  0  0
    9.0000   -0.8659    0.0000 O   0  0  0  0  0  0  0  0  0  0  0  0
    8.2499    0.4329    0.0000 C   0  0  0  0  0  0  0  0  0  0  0  0
    9.0000    1.7321    0.0000 C   0  0  0  0  0  0  0  0  0  0  0  0
    8.2499    3.0311    0.0000 C   0  0  0  0  0  0  0  0  0  0  0  0
    6.7501    3.0311    0.0000 C   0  0  0  0  0  0  0  0  0  0  0  0
    6.0000    4.3301    0.0000 Cl  0  0  0  0  0  0  0  0  0  0  0  0
    6.0000    1.7321    0.0000 C   0  0  0  0  0  0  0  0  0  0  0  0
    6.7501    0.4329    0.0000 C   0  0  0  0  0  0  0  0  0  0  0  0
  1  2  1  0  0  0  0
  3  2  1  0  0  0  0
  2  7  1  0  0  0  0
  4  3  1  0  0  0  0
  5  4  1  0  0  0  0
  6  5  1  0  0  0  0
  5  8  1  0  0  0  0
  7  6  1  0  0  0  0
  8  9  1  0  0  0  0
  9 10  2  0  0  0  0
  9 11  1  0  0  0  0
 11 12  1  0  0  0  0
 11 20  1  0  0  0  0
 12 13  1  0  0  0  0
 14 13  2  0  0  0  0
 13 19  1  0  0  0  0
 15 14  1  0  0  0  0
 16 15  2  0  0  0  0
 16 17  1  0  0  0  0
 18 16  1  0  0  0  0
 19 18  2  0  0  0  0
 20 21  1  0  0  0  0
 22 21  2  0  0  0  0
 21 27  1  0  0  0  0
 23 22  1  0  0  0  0
 24 23  2  0  0  0  0
 24 25  1  0  0  0  0
 26 24  1  0  0  0  0
 27 26  2  0  0  0  0
M  END
> <Inchi_key>
QDGIAPPCJRFVEK-UHFFFAOYSA-N

> <Source>
Mulliner

> <ID>
HT1210

> <H_MFHB>
0

> <CAS>
22204-91-7

> <Cholestasis>


> <Name>
lifibrate

> <Class>
0


$$$$