
  -INDIGO-08031710012D

 11 11  0  0  0  0  0  0  0  0999 V2000
    7.6788   -2.1939    0.0000 C   0  0  0  0  0  0  0  0  0  0  0  0
    6.3797   -2.9439    0.0000 C   0  0  0  0  0  0  0  0  0  0  0  0
    5.0807   -2.1939    0.0000 C   0  0  0  0  0  0  0  0  0  0  0  0
    3.7816   -2.9439    0.0000 C   0  0  0  0  0  0  0  0  0  0  0  0
    2.4826   -2.1939    0.0000 C   0  0  0  0  0  0  0  0  0  0  0  0
    2.4826   -0.6939    0.0000 C   0  0  0  0  0  0  0  0  0  0  0  0
    3.7816    0.0561    0.0000 C   0  0  0  0  0  0  0  0  0  0  0  0
    5.0807   -0.6939    0.0000 N   0  0  0  0  0  0  0  0  0  0  0  0
    1.1836   -2.9439    0.0000 C   0  0  0  0  0  0  0  0  0  0  0  0
   -0.1155   -2.1939    0.0000 S   0  0  0  0  0  0  0  0  0  0  0  0
    1.1836   -4.4439    0.0000 N   0  0  0  0  0  0  0  0  0  0  0  0
  1  2  1  0  0  0  0
  2  3  1  0  0  0  0
  4  3  2  0  0  0  0
  3  8  1  0  0  0  0
  5  4  1  0  0  0  0
  6  5  2  0  0  0  0
  5  9  1  0  0  0  0
  7  6  1  0  0  0  0
  8  7  2  0  0  0  0
  9 10  2  0  0  0  0
  9 11  1  0  0  0  0
M  END
> <Inchi_key>
AEOCXXJPGCBFJA-UHFFFAOYSA-N

> <Source>
Mulliner

> <ID>
HT0809

> <H_MFHB>
0

> <CAS>


> <Cholestasis>


> <Name>
ethionamide

> <Class>
0

$$$$