

  -INDIGO-08031710012D

 45 49  0  0  0  0  0  0  0  0999 V2000
   -5.2546  -12.3546    0.0000 C   0  0  0  0  0  0  0  0  0  0  0  0
   -5.2546  -10.8547    0.0000 O   0  0  0  0  0  0  0  0  0  0  0  0
   -3.9556  -10.1045    0.0000 C   0  0  0  0  0  0  0  0  0  0  0  0
   -2.6565  -10.8547    0.0000 C   0  0  0  0  0  0  0  0  0  0  0  0
   -1.3575  -10.1045    0.0000 C   0  0  0  0  0  0  0  0  0  0  0  0
   -0.0584  -10.8547    0.0000 C   0  0  0  0  0  0  0  0  0  0  0  0
   -0.0584  -12.3546    0.0000 C   0  0  0  0  0  0  0  0  0  0  0  0
    1.2406  -13.1046    0.0000 C   0  0  0  0  0  0  0  0  0  0  0  0
   -1.3575  -13.1046    0.0000 N   0  0  0  0  0  0  0  0  0  0  0  0
   -2.6565  -12.3546    0.0000 C   0  0  0  0  0  0  0  0  0  0  0  0
   -3.9556  -13.1046    0.0000 C   0  0  0  0  0  0  0  0  0  0  0  0
    1.2406  -10.1045    0.0000 C   0  0  0  0  0  0  0  0  0  0  0  0
    1.2406   -8.6046    0.0000 O   0  0  0  0  0  0  0  0  0  0  0  0
    2.5396  -10.8547    0.0000 O   0  0  0  0  0  0  0  0  0  0  0  0
    3.8387  -10.1045    0.0000 C   0  0  0  0  0  0  0  0  0  0  0  0
    5.1377  -10.8547    0.0000 C   0  0  0  0  0  0  0  0  0  0  0  0
    6.4368  -10.1045    0.0000 N   0  0  0  0  0  0  0  0  0  0  0  0
    7.7358  -10.8547    0.0000 C   0  0  0  0  0  0  0  0  0  0  0  0
    9.0348  -10.1045    0.0000 C   0  0  0  0  0  0  0  0  0  0  0  0
    9.0348   -8.6046    0.0000 N   0  0  0  0  0  0  0  0  0  0  0  0
    7.7358   -7.8546    0.0000 C   0  0  0  0  0  0  0  0  0  0  0  0
    6.4368   -8.6046    0.0000 C   0  0  0  0  0  0  0  0  0  0  0  0
   10.3339   -7.8546    0.0000 C   0  0  0  0  0  0  0  0  0  0  0  0
   11.6329   -8.6046    0.0000 C   0  0  0  0  0  0  0  0  0  0  0  0
   12.9320   -7.8546    0.0000 C   0  0  0  0  0  0  0  0  0  0  0  0
   14.2310   -8.6046    0.0000 C   0  0  0  0  0  0  0  0  0  0  0  0
   14.2310  -10.1045    0.0000 C   0  0  0  0  0  0  0  0  0  0  0  0
   12.9320  -10.8547    0.0000 C   0  0  0  0  0  0  0  0  0  0  0  0
   11.6329  -10.1045    0.0000 C   0  0  0  0  0  0  0  0  0  0  0  0
   10.3339   -6.3547    0.0000 C   0  0  0  0  0  0  0  0  0  0  0  0
    9.0348   -5.6045    0.0000 C   0  0  0  0  0  0  0  0  0  0  0  0
    9.0348   -4.1046    0.0000 C   0  0  0  0  0  0  0  0  0  0  0  0
   10.3339   -3.3546    0.0000 C   0  0  0  0  0  0  0  0  0  0  0  0
   11.6329   -4.1046    0.0000 C   0  0  0  0  0  0  0  0  0  0  0  0
   11.6329   -5.6045    0.0000 C   0  0  0  0  0  0  0  0  0  0  0  0
   -1.3575   -8.6046    0.0000 C   0  0  0  0  0  0  0  0  0  0  0  0
   -0.0584   -7.8546    0.0000 C   0  0  0  0  0  0  0  0  0  0  0  0
   -0.0584   -6.3547    0.0000 C   0  0  0  0  0  0  0  0  0  0  0  0
   -1.3575   -5.6045    0.0000 C   0  0  0  0  0  0  0  0  0  0  0  0
   -2.6565   -6.3547    0.0000 C   0  0  0  0  0  0  0  0  0  0  0  0
   -2.6565   -7.8546    0.0000 C   0  0  0  0  0  0  0  0  0  0  0  0
   -3.9556   -5.6045    0.0000 N   0  0  0  0  0  0  0  0  0  0  0  0
   -5.2546   -6.3547    0.0000 O   0  0  0  0  0  0  0  0  0  0  0  0
   -3.9556   -4.1046    0.0000 O   0  0  0  0  0  0  0  0  0  0  0  0
   -3.9556   -8.6046    0.0000 O   0  0  0  0  0  0  0  0  0  0  0  0
  1  2  1  0  0  0  0
  2  3  1  0  0  0  0
  3  4  2  0  0  0  0
  3 45  1  0  0  0  0
  5  4  1  0  0  0  0
  4 10  1  0  0  0  0
  6  5  1  0  0  0  0
  5 36  1  0  0  0  0
  7  6  2  0  0  0  0
  6 12  1  0  0  0  0
  7  8  1  0  0  0  0
  9  7  1  0  0  0  0
 10  9  2  0  0  0  0
 10 11  1  0  0  0  0
 12 13  2  0  0  0  0
 12 14  1  0  0  0  0
 14 15  1  0  0  0  0
 15 16  1  0  0  0  0
 16 17  1  0  0  0  0
 18 17  1  0  0  0  0
 17 22  1  0  0  0  0
 19 18  1  0  0  0  0
 20 19  1  0  0  0  0
 21 20  1  0  0  0  0
 20 23  1  0  0  0  0
 22 21  1  0  0  0  0
 23 24  1  0  0  0  0
 23 30  1  0  0  0  0
 25 24  2  0  0  0  0
 24 29  1  0  0  0  0
 26 25  1  0  0  0  0
 27 26  2  0  0  0  0
 28 27  1  0  0  0  0
 29 28  2  0  0  0  0
 31 30  2  0  0  0  0
 30 35  1  0  0  0  0
 32 31  1  0  0  0  0
 33 32  2  0  0  0  0
 34 33  1  0  0  0  0
 35 34  2  0  0  0  0
 37 36  2  0  0  0  0
 36 41  1  0  0  0  0
 38 37  1  0  0  0  0
 39 38  2  0  0  0  0
 40 39  1  0  0  0  0
 41 40  2  0  0  0  0
 40 42  1  0  0  0  0
 42 43  2  0  0  0  0
 42 44  1  0  0  0  0
M  CHG  2  42   1  44  -1
M  END
> <Inchi_key>
XVIXARVAOCTOLU-VBMGMRCRSA-N

> <Source>
Mulliner

> <ID>
HT1268

> <H_MFHB>
0

> <CAS>


> <Cholestasis>


> <Name>
manidipine

> <Class>
0


$$$$