
  -INDIGO-08031710012D

 25 27  0  0  0  0  0  0  0  0999 V2000
   -2.4803   -7.8920    0.0000 C   0  0  0  0  0  0  0  0  0  0  0  0
   -3.5948   -6.8883    0.0000 C   0  0  0  0  0  0  0  0  0  0  0  0
   -5.0620   -7.2002    0.0000 C   0  0  0  0  0  0  0  0  0  0  0  0
   -5.8121   -5.9012    0.0000 C   0  0  0  0  0  0  0  0  0  0  0  0
   -4.8083   -4.7864    0.0000 S   0  0  0  0  0  0  0  0  0  0  0  0
   -3.4382   -5.3965    0.0000 C   0  0  0  0  0  0  0  0  0  0  0  0
   -2.1390   -4.6464    0.0000 C   0  0  0  0  0  0  0  0  0  0  0  0
   -0.8399   -5.3965    0.0000 C   0  0  0  0  0  0  0  0  0  0  0  0
    0.4590   -4.6464    0.0000 C   0  0  0  0  0  0  0  0  0  0  0  0
    1.7581   -5.3965    0.0000 C   0  0  0  0  0  0  0  0  0  0  0  0
    3.0572   -4.6464    0.0000 N   0  0  0  0  0  0  0  0  0  0  0  0
    3.0572   -3.1465    0.0000 C   0  0  0  0  0  0  0  0  0  0  0  0
    4.3561   -2.3965    0.0000 C   0  0  0  0  0  0  0  0  0  0  0  0
    5.6552   -3.1465    0.0000 C   0  0  0  0  0  0  0  0  0  0  0  0
    5.6552   -4.6464    0.0000 C   0  0  0  0  0  0  0  0  0  0  0  0
    4.3561   -5.3965    0.0000 C   0  0  0  0  0  0  0  0  0  0  0  0
    6.9543   -5.3965    0.0000 C   0  0  0  0  0  0  0  0  0  0  0  0
    8.2532   -4.6464    0.0000 O   0  0  0  0  0  0  0  0  0  0  0  0
    6.9543   -6.8965    0.0000 O   0  0  0  0  0  0  0  0  0  0  0  0
   -2.1390   -3.1465    0.0000 C   0  0  0  0  0  0  0  0  0  0  0  0
   -0.9256   -2.2649    0.0000 S   0  0  0  0  0  0  0  0  0  0  0  0
   -1.3892   -0.8383    0.0000 C   0  0  0  0  0  0  0  0  0  0  0  0
   -2.8892   -0.8383    0.0000 C   0  0  0  0  0  0  0  0  0  0  0  0
   -3.3525   -2.2649    0.0000 C   0  0  0  0  0  0  0  0  0  0  0  0
   -4.7791   -2.7284    0.0000 C   0  0  0  0  0  0  0  0  0  0  0  0
  1  2  1  0  0  0  0
  3  2  1  0  0  0  0
  2  6  2  0  0  0  0
  4  3  2  0  0  0  0
  5  4  1  0  0  0  0
  6  5  1  0  0  0  0
  6  7  1  0  0  0  0
  7  8  2  0  0  0  0
  7 20  1  0  0  0  0
  8  9  1  0  0  0  0
  9 10  1  0  0  0  0
 10 11  1  0  0  0  0
 12 11  1  0  0  0  0
 11 16  1  0  0  0  0
 13 12  1  0  0  0  0
 14 13  1  0  0  0  0
 15 14  1  0  0  0  0
 16 15  1  0  0  0  0
 15 17  1  0  0  0  0
 17 18  2  0  0  0  0
 17 19  1  0  0  0  0
 21 20  1  0  0  0  0
 20 24  2  0  0  0  0
 22 21  1  0  0  0  0
 23 22  2  0  0  0  0
 24 23  1  0  0  0  0
 24 25  1  0  0  0  0
M  END
> <Inchi_key>
PBJUNZJWGZTSKL-UHFFFAOYSA-N

> <Source>
Mulliner , Kotsampasakou

> <ID>
EK0526;HT2052

> <H_MFHB>
0

> <CAS>


> <Cholestasis>
0

> <Name>
tiagabine hydrochloride;tiagabine

> <Class>
0

$$$$