

  -INDIGO-08031710012D

 27 27  0  0  0  0  0  0  0  0999 V2000
   21.6102   -0.0694    0.0000 C   0  0  0  0  0  0  0  0  0  0  0  0
   20.1102   -0.0598    0.0000 C   0  0  0  0  0  0  0  0  0  0  0  0
   19.3518   -1.3540    0.0000 C   0  0  0  0  0  0  0  0  0  0  0  0
   17.8518   -1.3444    0.0000 C   0  0  0  0  0  0  0  0  0  0  0  0
   17.0937   -2.6385    0.0000 C   0  0  0  0  0  0  0  0  0  0  0  0
   15.5937   -2.6289    0.0000 C   0  0  0  0  0  0  0  0  0  0  0  0
   14.8353   -3.9231    0.0000 C   0  0  0  0  0  0  0  0  0  0  0  0
   13.3353   -3.9135    0.0000 C   0  0  0  0  0  0  0  0  0  0  0  0
   12.5937   -2.6095    0.0000 O   0  0  0  0  0  0  0  0  0  0  0  0
   12.5771   -5.2077    0.0000 C   0  0  0  0  0  0  0  0  0  0  0  0
   11.0769   -5.1980    0.0000 C   0  0  0  0  0  0  0  0  0  0  0  0
   10.3187   -6.4922    0.0000 C   0  0  0  0  0  0  0  0  0  0  0  0
   10.9200   -7.8664    0.0000 C   0  0  0  0  0  0  0  0  0  0  0  0
   12.3853   -8.1876    0.0000 O   0  0  0  0  0  0  0  0  0  0  0  0
    9.7988   -8.8629    0.0000 C   0  0  0  0  0  0  0  0  0  0  0  0
    8.5047   -8.1045    0.0000 C   0  0  0  0  0  0  0  0  0  0  0  0
    7.1304   -8.7059    0.0000 O   0  0  0  0  0  0  0  0  0  0  0  0
    8.8259   -6.6393    0.0000 C   0  0  0  0  0  0  0  0  0  0  0  0
    7.8293   -5.5183    0.0000 C   0  0  0  0  0  0  0  0  0  0  0  0
    6.3602   -5.8207    0.0000 C   0  0  0  0  0  0  0  0  0  0  0  0
    5.3636   -4.6995    0.0000 C   0  0  0  0  0  0  0  0  0  0  0  0
    5.8363   -3.2760    0.0000 C   0  0  0  0  0  0  0  0  0  0  0  0
    4.8399   -2.1549    0.0000 C   0  0  0  0  0  0  0  0  0  0  0  0
    5.3126   -0.7312    0.0000 C   0  0  0  0  0  0  0  0  0  0  0  0
    4.3162    0.3900    0.0000 C   0  0  0  0  0  0  0  0  0  0  0  0
    4.7887    1.8135    0.0000 O   0  0  0  0  0  0  0  0  0  0  0  0
    2.8469    0.0875    0.0000 O   0  0  0  0  0  0  0  0  0  0  0  0
  1  2  1  0  0  0  0
  2  3  1  0  0  0  0
  3  4  1  0  0  0  0
  4  5  1  0  0  0  0
  5  6  1  0  0  0  0
  6  7  1  0  0  0  0
  7  8  1  0  0  0  0
  8  9  2  0  0  0  0
  8 10  1  0  0  0  0
 10 11  1  0  0  0  0
 11 12  1  0  0  0  0
 13 12  1  0  0  0  0
 12 18  1  0  0  0  0
 13 14  1  0  0  0  0
 15 13  1  0  0  0  0
 16 15  1  0  0  0  0
 16 17  1  0  0  0  0
 18 16  1  0  0  0  0
 18 19  1  0  0  0  0
 19 20  1  0  0  0  0
 20 21  2  0  0  0  0
 21 22  1  0  0  0  0
 22 23  1  0  0  0  0
 23 24  1  0  0  0  0
 24 25  1  0  0  0  0
 25 26  2  0  0  0  0
 25 27  1  0  0  0  0
M  END
> <Inchi_key>
TVHAZVBUYQMHBC-TWGQIWQCSA-N

> <Source>
Mulliner , Kotsampasakou

> <ID>
EK0560;HT2151

> <H_MFHB>
0

> <CAS>


> <Cholestasis>
0

> <Name>
unoprostone

> <Class>
0


$$$$