

  -INDIGO-08031710012D

 25 28  0  0  0  0  0  0  0  0999 V2000
    7.4032   -0.3081    0.0000 C   0  0  0  0  0  0  0  0  0  0  0  0
    5.9085   -0.1835    0.0000 O   0  0  0  0  0  0  0  0  0  0  0  0
    5.0530   -1.4156    0.0000 C   0  0  0  0  0  0  0  0  0  0  0  0
    4.1665   -0.2058    0.0000 C   0  0  0  0  0  0  0  0  0  0  0  0
    4.6243    1.2227    0.0000 C   0  0  0  0  0  0  0  0  0  0  0  0
    3.6160    2.3333    0.0000 O   0  0  0  0  0  0  0  0  0  0  0  0
    4.0738    3.7618    0.0000 C   0  0  0  0  0  0  0  0  0  0  0  0
    5.5397    4.0796    0.0000 O   0  0  0  0  0  0  0  0  0  0  0  0
    3.0653    4.8724    0.0000 N   0  0  0  0  0  0  0  0  0  0  0  0
    2.7417   -0.6751    0.0000 C   0  0  0  0  0  0  0  0  0  0  0  0
    2.7480   -2.1751    0.0000 C   0  0  0  0  0  0  0  0  0  0  0  0
    4.1764   -2.6329    0.0000 N   0  0  0  0  0  0  0  0  0  0  0  0
    5.0629   -3.8427    0.0000 C   0  0  0  0  0  0  0  0  0  0  0  0
    6.4877   -3.3734    0.0000 C   0  0  0  0  0  0  0  0  0  0  0  0
    6.4816   -1.8734    0.0000 C   0  0  0  0  0  0  0  0  0  0  0  0
    7.7837   -2.6181    0.0000 N   0  0  0  0  0  0  0  0  0  0  0  0
    9.2837   -2.6120    0.0000 C   0  0  0  0  0  0  0  0  0  0  0  0
    1.4519   -2.9304    0.0000 C   0  0  0  0  0  0  0  0  0  0  0  0
    0.1498   -2.1857    0.0000 C   0  0  0  0  0  0  0  0  0  0  0  0
   -1.1460   -2.9410    0.0000 C   0  0  0  0  0  0  0  0  0  0  0  0
    0.1438   -0.6857    0.0000 C   0  0  0  0  0  0  0  0  0  0  0  0
   -1.1583    0.0590    0.0000 N   0  0  0  0  0  0  0  0  0  0  0  0
    1.4397    0.0696    0.0000 C   0  0  0  0  0  0  0  0  0  0  0  0
    1.4336    1.5696    0.0000 O   0  0  0  0  0  0  0  0  0  0  0  0
    1.4581   -4.4304    0.0000 O   0  0  0  0  0  0  0  0  0  0  0  0
  1  2  1  0  0  0  0
  2  3  1  0  0  0  0
  4  3  1  0  0  0  0
 12  3  1  0  0  0  0
  3 15  1  0  0  0  0
  4  5  1  0  0  0  0
 10  4  1  0  0  0  0
  5  6  1  0  0  0  0
  6  7  1  0  0  0  0
  7  8  2  0  0  0  0
  7  9  1  0  0  0  0
 10 11  2  0  0  0  0
 23 10  1  0  0  0  0
 12 11  1  0  0  0  0
 11 18  1  0  0  0  0
 13 12  1  0  0  0  0
 14 13  1  0  0  0  0
 14 15  1  0  0  0  0
 16 14  1  0  0  0  0
 15 16  1  0  0  0  0
 16 17  1  0  0  0  0
 18 19  2  0  0  0  0
 18 25  1  0  0  0  0
 19 20  1  0  0  0  0
 19 21  1  0  0  0  0
 21 22  2  0  0  0  0
 21 23  1  0  0  0  0
 23 24  2  0  0  0  0
M  END
> <Inchi_key>
RLZIADDATOMNNY-UHFFFAOYSA-N

> <Source>
Mulliner

> <ID>
HT3593

> <H_MFHB>
0

> <CAS>


> <Cholestasis>


> <Name>


> <Class>
0


$$$$