
  -INDIGO-08031710012D

  9  8  0  0  0  0  0  0  0  0999 V2000
    7.7081   -1.3987    0.0000 N   0  0  0  0  0  0  0  0  0  0  0  0
    6.4091   -2.1487    0.0000 C   0  0  0  0  0  0  0  0  0  0  0  0
    5.1100   -1.3987    0.0000 C   0  0  0  0  0  0  0  0  0  0  0  0
    5.1100    0.1013    0.0000 O   0  0  0  0  0  0  0  0  0  0  0  0
    3.8111   -2.1487    0.0000 C   0  0  0  0  0  0  0  0  0  0  0  0
    2.5120   -1.3987    0.0000 C   0  0  0  0  0  0  0  0  0  0  0  0
    1.2129   -2.1487    0.0000 C   0  0  0  0  0  0  0  0  0  0  0  0
    1.2129   -3.6487    0.0000 O   0  0  0  0  0  0  0  0  0  0  0  0
   -0.0861   -1.3987    0.0000 O   0  0  0  0  0  0  0  0  0  0  0  0
  1  2  1  0  0  0  0
  2  3  1  0  0  0  0
  3  4  2  0  0  0  0
  3  5  1  0  0  0  0
  5  6  1  0  0  0  0
  6  7  1  0  0  0  0
  7  8  2  0  0  0  0
  7  9  1  0  0  0  0
M  END
> <Inchi_key>
ZGXJTSGNIOSYLO-UHFFFAOYSA-N

> <Source>
Mulliner

> <ID>
HT0136

> <H_MFHB>
0

> <CAS>


> <Cholestasis>


> <Name>
aminolevulinic acid hydrochloride;delta-aminolevulinic acid

> <Class>
0

$$$$