
  -INDIGO-08031710012D

 31 34  0  0  0  0  0  0  0  0999 V2000
   16.7272   -5.0255    0.0000 C   0  0  0  0  0  0  0  0  0  0  0  0
   15.2400   -5.2215    0.0000 C   0  0  0  0  0  0  0  0  0  0  0  0
   14.3266   -4.0316    0.0000 C   0  0  0  0  0  0  0  0  0  0  0  0
   12.8396   -4.2277    0.0000 C   0  0  0  0  0  0  0  0  0  0  0  0
   12.2658   -5.6136    0.0000 O   0  0  0  0  0  0  0  0  0  0  0  0
   11.9262   -3.0378    0.0000 O   0  0  0  0  0  0  0  0  0  0  0  0
   10.4390   -3.2339    0.0000 C   0  0  0  0  0  0  0  0  0  0  0  0
   10.5571   -4.7292    0.0000 C   0  0  0  0  0  0  0  0  0  0  0  0
    9.1713   -5.3035    0.0000 C   0  0  0  0  0  0  0  0  0  0  0  0
    8.1971   -4.1631    0.0000 C   0  0  0  0  0  0  0  0  0  0  0  0
    6.6976   -4.1241    0.0000 C   0  0  0  0  0  0  0  0  0  0  0  0
    5.9140   -5.4032    0.0000 C   0  0  0  0  0  0  0  0  0  0  0  0
    4.4145   -5.3642    0.0000 C   0  0  0  0  0  0  0  0  0  0  0  0
    3.6986   -4.0461    0.0000 C   0  0  0  0  0  0  0  0  0  0  0  0
    2.1989   -4.0071    0.0000 C   0  0  0  0  0  0  0  0  0  0  0  0
    1.4830   -2.6890    0.0000 C   0  0  0  0  0  0  0  0  0  0  0  0
   -0.0165   -2.6500    0.0000 O   0  0  0  0  0  0  0  0  0  0  0  0
    2.2666   -1.4099    0.0000 C   0  0  0  0  0  0  0  0  0  0  0  0
    3.7661   -1.4489    0.0000 C   0  0  0  0  0  0  0  0  0  0  0  0
    4.4820   -2.7670    0.0000 C   0  0  0  0  0  0  0  0  0  0  0  0
    5.2656   -1.4879    0.0000 C   0  0  0  0  0  0  0  0  0  0  0  0
    5.9814   -2.8060    0.0000 C   0  0  0  0  0  0  0  0  0  0  0  0
    6.7650   -1.5269    0.0000 C   0  0  0  0  0  0  0  0  0  0  0  0
    6.0489   -0.2088    0.0000 O   0  0  0  0  0  0  0  0  0  0  0  0
    8.2645   -1.5659    0.0000 C   0  0  0  0  0  0  0  0  0  0  0  0
    8.9804   -2.8840    0.0000 C   0  0  0  0  0  0  0  0  0  0  0  0
    9.8726   -1.6780    0.0000 C   0  0  0  0  0  0  0  0  0  0  0  0
   10.9643   -1.8288    0.0000 C   0  0  0  0  0  0  0  0  0  0  0  0
   10.0098   -0.6715    0.0000 O   0  0  0  0  0  0  0  0  0  0  0  0
   12.4436   -1.5809    0.0000 C   0  0  0  0  0  0  0  0  0  0  0  0
   12.9686   -0.1758    0.0000 O   0  0  0  0  0  0  0  0  0  0  0  0
  1  2  1  0  0  0  0
  2  3  1  0  0  0  0
  3  4  1  0  0  0  0
  4  5  2  0  0  0  0
  4  6  1  0  0  0  0
  6  7  1  0  0  0  0
  8  7  1  0  0  0  0
  7 26  1  0  0  0  0
  7 28  1  0  0  0  0
  9  8  1  0  0  0  0
 10  9  1  0  0  0  0
 11 10  1  0  0  0  0
 10 26  1  0  0  0  0
 12 11  1  0  0  0  0
 11 22  1  0  0  0  0
 13 12  1  0  0  0  0
 14 13  1  0  0  0  0
 15 14  2  0  0  0  0
 14 20  1  0  0  0  0
 16 15  1  0  0  0  0
 16 17  2  0  0  0  0
 18 16  1  0  0  0  0
 19 18  1  0  0  0  0
 20 19  1  0  0  0  0
 20 21  1  0  0  0  0
 22 20  1  0  0  0  0
 23 22  1  0  0  0  0
 23 24  1  0  0  0  0
 25 23  1  0  0  0  0
 26 25  1  0  0  0  0
 26 27  1  0  0  0  0
 28 29  2  0  0  0  0
 28 30  1  0  0  0  0
 30 31  1  0  0  0  0
M  END
> <Inchi_key>
BMCQMVFGOVHVNG-UHFFFAOYSA-N

> <Source>
Mulliner

> <ID>
HT1049

> <H_MFHB>
0

> <CAS>
13609-67-1

> <Cholestasis>


> <Name>
hydrocortisone butyrate

> <Class>
0

$$$$