
  -INDIGO-08031710012D

 27 30  0  0  0  0  0  0  0  0999 V2000
    4.8926   -0.4104    0.0000 C   0  0  0  0  0  0  0  0  0  0  0  0
    4.0369    0.8215    0.0000 C   0  0  0  0  0  0  0  0  0  0  0  0
    3.2820   -0.4749    0.0000 C   0  0  0  0  0  0  0  0  0  0  0  0
    1.7820   -0.4695    0.0000 C   0  0  0  0  0  0  0  0  0  0  0  0
    1.0276   -1.7659    0.0000 O   0  0  0  0  0  0  0  0  0  0  0  0
    1.0367    0.8322    0.0000 C   0  0  0  0  0  0  0  0  0  0  0  0
    1.7914    2.1285    0.0000 C   0  0  0  0  0  0  0  0  0  0  0  0
    1.0461    3.4303    0.0000 C   0  0  0  0  0  0  0  0  0  0  0  0
   -0.4539    3.4356    0.0000 C   0  0  0  0  0  0  0  0  0  0  0  0
   -1.2086    2.1393    0.0000 C   0  0  0  0  0  0  0  0  0  0  0  0
   -2.7086    2.1447    0.0000 C   0  0  0  0  0  0  0  0  0  0  0  0
   -3.4632    0.8483    0.0000 C   0  0  0  0  0  0  0  0  0  0  0  0
   -4.9632    0.8537    0.0000 O   0  0  0  0  0  0  0  0  0  0  0  0
   -2.7179   -0.4534    0.0000 C   0  0  0  0  0  0  0  0  0  0  0  0
   -1.2177   -0.4588    0.0000 C   0  0  0  0  0  0  0  0  0  0  0  0
   -0.4633    0.8376    0.0000 C   0  0  0  0  0  0  0  0  0  0  0  0
    0.2820   -0.4641    0.0000 C   0  0  0  0  0  0  0  0  0  0  0  0
    3.2913    2.1232    0.0000 C   0  0  0  0  0  0  0  0  0  0  0  0
    4.2991    3.2343    0.0000 C   0  0  0  0  0  0  0  0  0  0  0  0
    5.6671    2.6193    0.0000 C   0  0  0  0  0  0  0  0  0  0  0  0
    5.5051    1.1281    0.0000 C   0  0  0  0  0  0  0  0  0  0  0  0
    5.9885   -0.2920    0.0000 O   0  0  0  0  0  0  0  0  0  0  0  0
    6.9859    0.8881    0.0000 C   0  0  0  0  0  0  0  0  0  0  0  0
    7.5184   -0.5142    0.0000 O   0  0  0  0  0  0  0  0  0  0  0  0
    7.9339    2.0504    0.0000 O   0  0  0  0  0  0  0  0  0  0  0  0
    9.4145    1.8105    0.0000 C   0  0  0  0  0  0  0  0  0  0  0  0
   10.3628    2.9728    0.0000 Cl  0  0  0  0  0  0  0  0  0  0  0  0
  1  2  1  0  0  0  0
  3  2  1  0  0  0  0
 18  2  1  0  0  0  0
  2 21  1  0  0  0  0
  4  3  1  0  0  0  0
  4  5  1  0  0  0  0
  6  4  1  0  0  0  0
  6  7  1  0  0  0  0
 16  6  1  0  0  0  0
  7  8  1  0  0  0  0
 18  7  1  0  0  0  0
  8  9  1  0  0  0  0
  9 10  1  0  0  0  0
 11 10  2  0  0  0  0
 10 16  1  0  0  0  0
 12 11  1  0  0  0  0
 12 13  2  0  0  0  0
 14 12  1  0  0  0  0
 15 14  2  0  0  0  0
 16 15  1  0  0  0  0
 16 17  1  0  0  0  0
 19 18  1  0  0  0  0
 20 19  1  0  0  0  0
 21 20  1  0  0  0  0
 21 22  1  0  0  0  0
 21 23  1  0  0  0  0
 23 24  2  0  0  0  0
 23 25  1  0  0  0  0
 25 26  1  0  0  0  0
 26 27  1  0  0  0  0
M  END
> <Inchi_key>
YPZVAYHNBBHPTO-UHFFFAOYSA-N

> <Source>
Mulliner

> <ID>
HT1244

> <H_MFHB>
0

> <CAS>


> <Cholestasis>


> <Name>
loteprednol

> <Class>
0

$$$$