

  -INDIGO-08031710012D

 37 39  0  0  0  0  0  0  0  0999 V2000
    1.5926   -5.9438    0.0000 C   0  0  0  0  0  0  0  0  0  0  0  0
    2.8918   -5.1939    0.0000 C   0  0  0  0  0  0  0  0  0  0  0  0
    2.8918   -3.6939    0.0000 N   0  0  0  0  0  0  0  0  0  0  0  0
    1.5926   -2.9438    0.0000 C   0  0  0  0  0  0  0  0  0  0  0  0
    0.2936   -3.6939    0.0000 C   0  0  0  0  0  0  0  0  0  0  0  0
    4.1908   -2.9438    0.0000 C   0  0  0  0  0  0  0  0  0  0  0  0
    5.4898   -3.6939    0.0000 C   0  0  0  0  0  0  0  0  0  0  0  0
    6.7887   -2.9438    0.0000 C   0  0  0  0  0  0  0  0  0  0  0  0
    6.7887   -1.4438    0.0000 C   0  0  0  0  0  0  0  0  0  0  0  0
    5.4898   -0.6939    0.0000 C   0  0  0  0  0  0  0  0  0  0  0  0
    4.1908   -1.4438    0.0000 C   0  0  0  0  0  0  0  0  0  0  0  0
    8.0877   -0.6939    0.0000 C   0  0  0  0  0  0  0  0  0  0  0  0
    9.3870   -1.4438    0.0000 C   0  0  0  0  0  0  0  0  0  0  0  0
   10.6859   -0.6939    0.0000 C   0  0  0  0  0  0  0  0  0  0  0  0
   11.9849   -1.4438    0.0000 C   0  0  0  0  0  0  0  0  0  0  0  0
   11.9849   -2.9438    0.0000 C   0  0  0  0  0  0  0  0  0  0  0  0
   13.2839   -3.6939    0.0000 N   0  0  0  0  0  0  0  0  0  0  0  0
   13.2839   -5.1939    0.0000 C   0  0  0  0  0  0  0  0  0  0  0  0
   14.5831   -5.9438    0.0000 C   0  0  0  0  0  0  0  0  0  0  0  0
   14.5831   -2.9438    0.0000 C   0  0  0  0  0  0  0  0  0  0  0  0
   15.8821   -3.6939    0.0000 C   0  0  0  0  0  0  0  0  0  0  0  0
   10.6859   -3.6939    0.0000 C   0  0  0  0  0  0  0  0  0  0  0  0
    9.3870   -2.9438    0.0000 C   0  0  0  0  0  0  0  0  0  0  0  0
    8.0877    0.8061    0.0000 C   0  0  0  0  0  0  0  0  0  0  0  0
    6.7887    1.5562    0.0000 C   0  0  0  0  0  0  0  0  0  0  0  0
    6.7887    3.0562    0.0000 C   0  0  0  0  0  0  0  0  0  0  0  0
    8.0877    3.8062    0.0000 C   0  0  0  0  0  0  0  0  0  0  0  0
    9.3870    3.0562    0.0000 C   0  0  0  0  0  0  0  0  0  0  0  0
    9.3870    1.5562    0.0000 C   0  0  0  0  0  0  0  0  0  0  0  0
   10.6859    0.8061    0.0000 S   0  0  0  0  0  0  0  0  0  0  0  0
    9.9359   -0.4929    0.0000 O   0  0  0  0  0  0  0  0  0  0  0  0
   11.4359    2.1052    0.0000 O   0  0  0  0  0  0  0  0  0  0  0  0
   11.9849    0.0562    0.0000 O   0  0  0  0  0  0  0  0  0  0  0  0
    5.4898    3.8062    0.0000 S   0  0  0  0  0  0  0  0  0  0  0  0
    6.2398    5.1052    0.0000 O   0  0  0  0  0  0  0  0  0  0  0  0
    4.7398    2.5071    0.0000 O   0  0  0  0  0  0  0  0  0  0  0  0
    4.1908    4.5562    0.0000 O   0  0  0  0  0  0  0  0  0  0  0  0
  1  2  1  0  0  0  0
  2  3  1  0  0  0  0
  3  4  1  0  0  0  0
  3  6  1  0  0  0  0
  4  5  1  0  0  0  0
  7  6  2  0  0  0  0
  6 11  1  0  0  0  0
  8  7  1  0  0  0  0
  9  8  2  0  0  0  0
 10  9  1  0  0  0  0
  9 12  1  0  0  0  0
 11 10  2  0  0  0  0
 12 13  2  0  0  0  0
 12 24  1  0  0  0  0
 14 13  1  0  0  0  0
 13 23  1  0  0  0  0
 15 14  2  0  0  0  0
 16 15  1  0  0  0  0
 16 17  2  0  0  0  0
 22 16  1  0  0  0  0
 17 18  1  0  0  0  0
 17 20  1  0  0  0  0
 18 19  1  0  0  0  0
 20 21  1  0  0  0  0
 23 22  2  0  0  0  0
 25 24  2  0  0  0  0
 24 29  1  0  0  0  0
 26 25  1  0  0  0  0
 27 26  2  0  0  0  0
 26 34  1  0  0  0  0
 28 27  1  0  0  0  0
 29 28  2  0  0  0  0
 29 30  1  0  0  0  0
 30 31  2  0  0  0  0
 30 32  2  0  0  0  0
 30 33  1  0  0  0  0
 34 35  2  0  0  0  0
 34 36  2  0  0  0  0
 34 37  1  0  0  0  0
M  CHG  2  17   1  37  -1
M  END
> <Inchi_key>
YFKDCGWIINMRQY-UHFFFAOYSA-N

> <Source>
Mulliner

> <ID>
HT1141

> <H_MFHB>
0

> <CAS>


> <Cholestasis>


> <Name>
isosulfan blue

> <Class>
0


$$$$