
  -INDIGO-08031710012D

 22 24  0  0  0  0  0  0  0  0999 V2000
    2.4736    2.0885    0.0000 C   0  0  0  0  0  0  0  0  0  0  0  0
    2.2223    0.6098    0.0000 O   0  0  0  0  0  0  0  0  0  0  0  0
    0.8158    0.0882    0.0000 C   0  0  0  0  0  0  0  0  0  0  0  0
   -0.3390    1.0453    0.0000 O   0  0  0  0  0  0  0  0  0  0  0  0
    0.5642   -1.3906    0.0000 C   0  0  0  0  0  0  0  0  0  0  0  0
    1.7857   -1.1709    0.0000 C   0  0  0  0  0  0  0  0  0  0  0  0
    0.8210   -2.3536    0.0000 C   0  0  0  0  0  0  0  0  0  0  0  0
   -0.6526   -1.4888    0.0000 C   0  0  0  0  0  0  0  0  0  0  0  0
   -0.5271   -0.0555    0.0000 C   0  0  0  0  0  0  0  0  0  0  0  0
   -1.1779    1.1080    0.0000 C   0  0  0  0  0  0  0  0  0  0  0  0
   -0.9965   -0.5074    0.0000 C   0  0  0  0  0  0  0  0  0  0  0  0
   -1.9525   -1.6877    0.0000 N   0  0  0  0  0  0  0  0  0  0  0  0
   -3.2535   -2.4342    0.0000 C   0  0  0  0  0  0  0  0  0  0  0  0
    3.0782   -0.4096    0.0000 O   0  0  0  0  0  0  0  0  0  0  0  0
    4.3837   -1.1483    0.0000 C   0  0  0  0  0  0  0  0  0  0  0  0
    4.3967   -2.6482    0.0000 O   0  0  0  0  0  0  0  0  0  0  0  0
    5.6762   -0.3870    0.0000 C   0  0  0  0  0  0  0  0  0  0  0  0
    6.9818   -1.1257    0.0000 C   0  0  0  0  0  0  0  0  0  0  0  0
    8.2741   -0.3644    0.0000 C   0  0  0  0  0  0  0  0  0  0  0  0
    8.2611    1.1356    0.0000 C   0  0  0  0  0  0  0  0  0  0  0  0
    6.9556    1.8742    0.0000 C   0  0  0  0  0  0  0  0  0  0  0  0
    5.6630    1.1130    0.0000 C   0  0  0  0  0  0  0  0  0  0  0  0
  1  2  1  0  0  0  0
  2  3  1  0  0  0  0
  3  4  2  0  0  0  0
  3  5  1  0  0  0  0
  6  5  1  0  0  0  0
  5 11  1  0  0  0  0
  7  6  1  0  0  0  0
  6 14  1  0  0  0  0
  8  7  1  0  0  0  0
  8  9  1  0  0  0  0
 12  8  1  0  0  0  0
  9 10  1  0  0  0  0
 10 11  1  0  0  0  0
 11 12  1  0  0  0  0
 12 13  1  0  0  0  0
 14 15  1  0  0  0  0
 15 16  2  0  0  0  0
 15 17  1  0  0  0  0
 18 17  2  0  0  0  0
 17 22  1  0  0  0  0
 19 18  1  0  0  0  0
 20 19  2  0  0  0  0
 21 20  1  0  0  0  0
 22 21  2  0  0  0  0
M  END
> <Inchi_key>
ZPUCINDJVBIVPJ-UHFFFAOYSA-N

> <Source>
Mulliner

> <ID>
HT0540

> <H_MFHB>
0

> <CAS>
50-36-2;53-21-4

> <Cholestasis>


> <Name>
cocaine hydrochloride

> <Class>
0

$$$$