
  -INDIGO-08031710012D

 21 23  0  0  0  0  0  0  0  0999 V2000
   11.3515   -3.7339    0.0000 O   0  0  0  0  0  0  0  0  0  0  0  0
   10.1445   -2.8434    0.0000 C   0  0  0  0  0  0  0  0  0  0  0  0
   10.3120   -1.3528    0.0000 C   0  0  0  0  0  0  0  0  0  0  0  0
    9.1049   -0.4624    0.0000 C   0  0  0  0  0  0  0  0  0  0  0  0
    7.7303   -1.0625    0.0000 C   0  0  0  0  0  0  0  0  0  0  0  0
    7.5626   -2.5531    0.0000 C   0  0  0  0  0  0  0  0  0  0  0  0
    8.7697   -3.4436    0.0000 C   0  0  0  0  0  0  0  0  0  0  0  0
    6.5231   -0.1721    0.0000 C   0  0  0  0  0  0  0  0  0  0  0  0
    6.8007    1.3020    0.0000 C   0  0  0  0  0  0  0  0  0  0  0  0
    5.8218    2.4386    0.0000 N   0  0  0  0  0  0  0  0  0  0  0  0
    4.3229    2.3828    0.0000 C   0  0  0  0  0  0  0  0  0  0  0  0
    3.4314    1.1764    0.0000 C   0  0  0  0  0  0  0  0  0  0  0  0
    3.8218   -0.2727    0.0000 C   0  0  0  0  0  0  0  0  0  0  0  0
    2.6149   -1.1636    0.0000 C   0  0  0  0  0  0  0  0  0  0  0  0
    1.2400   -0.5639    0.0000 Cl  0  0  0  0  0  0  0  0  0  0  0  0
    2.7831   -2.6542    0.0000 C   0  0  0  0  0  0  0  0  0  0  0  0
    1.5762   -3.5450    0.0000 O   0  0  0  0  0  0  0  0  0  0  0  0
    4.1580   -3.2539    0.0000 C   0  0  0  0  0  0  0  0  0  0  0  0
    4.3260   -4.7444    0.0000 O   0  0  0  0  0  0  0  0  0  0  0  0
    5.3647   -2.3630    0.0000 C   0  0  0  0  0  0  0  0  0  0  0  0
    5.1967   -0.8724    0.0000 C   0  0  0  0  0  0  0  0  0  0  0  0
  1  2  1  0  0  0  0
  3  2  2  0  0  0  0
  2  7  1  0  0  0  0
  4  3  1  0  0  0  0
  5  4  2  0  0  0  0
  6  5  1  0  0  0  0
  5  8  1  0  0  0  0
  7  6  2  0  0  0  0
  9  8  1  0  0  0  0
  8 21  1  0  0  0  0
 10  9  1  0  0  0  0
 11 10  1  0  0  0  0
 12 11  1  0  0  0  0
 13 12  1  0  0  0  0
 14 13  1  0  0  0  0
 13 21  2  0  0  0  0
 14 15  1  0  0  0  0
 16 14  2  0  0  0  0
 16 17  1  0  0  0  0
 18 16  1  0  0  0  0
 18 19  1  0  0  0  0
 20 18  2  0  0  0  0
 21 20  1  0  0  0  0
M  END
> <Inchi_key>
TVURRHSHRRELCG-UHFFFAOYSA-N

> <Source>
Mulliner , Kotsampasakou

> <ID>
EK0210;HT0861

> <H_MFHB>
0

> <CAS>
67227-57-0

> <Cholestasis>
0

> <Name>
fenoldopam mesylate;fenoldopam

> <Class>
0

$$$$