
  -INDIGO-08031710012D

 35 38  0  0  0  0  0  0  0  0999 V2000
    8.0302   -2.2653    0.0000 C   0  0  0  0  0  0  0  0  0  0  0  0
    6.7513   -1.4814    0.0000 C   0  0  0  0  0  0  0  0  0  0  0  0
    5.3655   -2.0552    0.0000 C   0  0  0  0  0  0  0  0  0  0  0  0
    4.3914   -0.9146    0.0000 C   0  0  0  0  0  0  0  0  0  0  0  0
    2.8920   -0.8751    0.0000 C   0  0  0  0  0  0  0  0  0  0  0  0
    2.1079   -2.1539    0.0000 C   0  0  0  0  0  0  0  0  0  0  0  0
    0.6085   -2.1145    0.0000 C   0  0  0  0  0  0  0  0  0  0  0  0
   -0.1754   -3.3933    0.0000 F   0  0  0  0  0  0  0  0  0  0  0  0
   -0.1072   -0.7961    0.0000 C   0  0  0  0  0  0  0  0  0  0  0  0
   -1.6066   -0.7567    0.0000 C   0  0  0  0  0  0  0  0  0  0  0  0
   -2.3222    0.5616    0.0000 C   0  0  0  0  0  0  0  0  0  0  0  0
   -3.8216    0.6011    0.0000 O   0  0  0  0  0  0  0  0  0  0  0  0
   -1.5381    1.8405    0.0000 C   0  0  0  0  0  0  0  0  0  0  0  0
   -0.0387    1.8010    0.0000 C   0  0  0  0  0  0  0  0  0  0  0  0
    0.6769    0.4826    0.0000 C   0  0  0  0  0  0  0  0  0  0  0  0
    1.4607    1.7616    0.0000 C   0  0  0  0  0  0  0  0  0  0  0  0
    2.1763    0.4433    0.0000 C   0  0  0  0  0  0  0  0  0  0  0  0
    3.6758    0.4038    0.0000 F   0  0  0  0  0  0  0  0  0  0  0  0
    2.9602    1.7221    0.0000 C   0  0  0  0  0  0  0  0  0  0  0  0
    2.2448    3.0404    0.0000 O   0  0  0  0  0  0  0  0  0  0  0  0
    4.4596    1.6827    0.0000 C   0  0  0  0  0  0  0  0  0  0  0  0
    5.1752    0.3644    0.0000 C   0  0  0  0  0  0  0  0  0  0  0  0
    6.0676    1.5700    0.0000 C   0  0  0  0  0  0  0  0  0  0  0  0
    6.6337    0.0140    0.0000 C   0  0  0  0  0  0  0  0  0  0  0  0
    7.1593    1.4190    0.0000 O   0  0  0  0  0  0  0  0  0  0  0  0
    6.2053    2.5765    0.0000 C   0  0  0  0  0  0  0  0  0  0  0  0
    6.7308    3.9815    0.0000 O   0  0  0  0  0  0  0  0  0  0  0  0
    4.7258    2.3291    0.0000 C   0  0  0  0  0  0  0  0  0  0  0  0
    8.1209    0.2096    0.0000 C   0  0  0  0  0  0  0  0  0  0  0  0
    8.6952    1.5954    0.0000 O   0  0  0  0  0  0  0  0  0  0  0  0
    9.0340   -0.9805    0.0000 C   0  0  0  0  0  0  0  0  0  0  0  0
   10.5211   -0.7849    0.0000 O   0  0  0  0  0  0  0  0  0  0  0  0
   11.4342   -1.9751    0.0000 C   0  0  0  0  0  0  0  0  0  0  0  0
   12.9214   -1.7795    0.0000 O   0  0  0  0  0  0  0  0  0  0  0  0
   10.8599   -3.3608    0.0000 C   0  0  0  0  0  0  0  0  0  0  0  0
  1  2  1  0  0  0  0
  3  2  1  0  0  0  0
  2 24  1  0  0  0  0
  4  3  1  0  0  0  0
  5  4  1  0  0  0  0
  4 22  1  0  0  0  0
  6  5  1  0  0  0  0
  5 17  1  0  0  0  0
  7  6  1  0  0  0  0
  7  8  1  0  0  0  0
  9  7  1  0  0  0  0
 10  9  2  0  0  0  0
  9 15  1  0  0  0  0
 11 10  1  0  0  0  0
 11 12  2  0  0  0  0
 13 11  1  0  0  0  0
 14 13  2  0  0  0  0
 15 14  1  0  0  0  0
 15 16  1  0  0  0  0
 17 15  1  0  0  0  0
 17 18  1  0  0  0  0
 19 17  1  0  0  0  0
 19 20  1  0  0  0  0
 21 19  1  0  0  0  0
 22 21  1  0  0  0  0
 22 23  1  0  0  0  0
 24 22  1  0  0  0  0
 24 25  1  0  0  0  0
 24 29  1  0  0  0  0
 25 26  1  0  0  0  0
 26 27  2  0  0  0  0
 26 28  1  0  0  0  0
 29 30  2  0  0  0  0
 29 31  1  0  0  0  0
 31 32  1  0  0  0  0
 32 33  1  0  0  0  0
 33 34  2  0  0  0  0
 33 35  1  0  0  0  0
M  END
> <Inchi_key>
BOBLHFUVNSFZPJ-UHFFFAOYSA-N

> <Source>
Mulliner

> <ID>
HT0661

> <H_MFHB>
0

> <CAS>


> <Cholestasis>


> <Name>
diflorasone diacetate

> <Class>
0

$$$$