

  -INDIGO-08031710012D

  9  8  0  0  0  0  0  0  0  0999 V2000
    3.6874   -0.3541    0.0000 C   0  0  0  0  0  0  0  0  0  0  0  0
    3.6874   -1.8541    0.0000 C   0  0  0  0  0  0  0  0  0  0  0  0
    4.9864   -2.6041    0.0000 C   0  0  0  0  0  0  0  0  0  0  0  0
    2.3884   -2.6041    0.0000 C   0  0  0  0  0  0  0  0  0  0  0  0
    1.0893   -1.8541    0.0000 C   0  0  0  0  0  0  0  0  0  0  0  0
    1.0893   -0.3541    0.0000 N   0  0  0  0  0  0  0  0  0  0  0  0
   -0.2097   -2.6041    0.0000 C   0  0  0  0  0  0  0  0  0  0  0  0
   -1.5088   -1.8541    0.0000 O   0  0  0  0  0  0  0  0  0  0  0  0
   -0.2097   -4.1041    0.0000 O   0  0  0  0  0  0  0  0  0  0  0  0
  1  2  1  0  0  0  0
  2  3  1  0  0  0  0
  2  4  1  0  0  0  0
  4  5  1  0  0  0  0
  5  6  1  0  0  0  0
  5  7  1  0  0  0  0
  7  8  2  0  0  0  0
  7  9  1  0  0  0  0
M  END
> <Inchi_key>
ROHFNLRQFUQHCH-UHFFFAOYSA-N

> <Source>
Mulliner

> <ID>
HT1223

> <H_MFHB>
0

> <CAS>


> <Cholestasis>


> <Name>
l-leucine

> <Class>
0


$$$$