

  -INDIGO-08031710012D

 27 29  0  0  0  0  0  0  0  0999 V2000
    5.8322    5.8323    0.0000 C   0  0  0  0  0  0  0  0  0  0  0  0
    5.8322    4.3324    0.0000 C   0  0  0  0  0  0  0  0  0  0  0  0
    4.5331    3.5823    0.0000 C   0  0  0  0  0  0  0  0  0  0  0  0
    4.5331    2.0823    0.0000 C   0  0  0  0  0  0  0  0  0  0  0  0
    5.8322    1.3323    0.0000 C   0  0  0  0  0  0  0  0  0  0  0  0
    7.1314    2.0823    0.0000 O   0  0  0  0  0  0  0  0  0  0  0  0
    8.4303    1.3323    0.0000 C   0  0  0  0  0  0  0  0  0  0  0  0
    8.4303   -0.1677    0.0000 C   0  0  0  0  0  0  0  0  0  0  0  0
    7.1314   -0.9178    0.0000 C   0  0  0  0  0  0  0  0  0  0  0  0
    7.1314   -2.4177    0.0000 O   0  0  0  0  0  0  0  0  0  0  0  0
    5.8322   -0.1677    0.0000 C   0  0  0  0  0  0  0  0  0  0  0  0
    4.5331   -0.9178    0.0000 C   0  0  0  0  0  0  0  0  0  0  0  0
    3.2342   -0.1677    0.0000 C   0  0  0  0  0  0  0  0  0  0  0  0
    1.9352   -0.9178    0.0000 C   0  0  0  0  0  0  0  0  0  0  0  0
    1.9352   -2.4177    0.0000 O   0  0  0  0  0  0  0  0  0  0  0  0
    0.6361   -0.1677    0.0000 C   0  0  0  0  0  0  0  0  0  0  0  0
    0.6361    1.3323    0.0000 C   0  0  0  0  0  0  0  0  0  0  0  0
    1.9352    2.0823    0.0000 N   0  0  0  0  0  0  0  0  0  0  0  0
    1.9352    3.5823    0.0000 C   0  0  0  0  0  0  0  0  0  0  0  0
    0.6361    4.3324    0.0000 C   0  0  0  0  0  0  0  0  0  0  0  0
    3.2342    1.3323    0.0000 C   0  0  0  0  0  0  0  0  0  0  0  0
   -0.6629    2.0823    0.0000 C   0  0  0  0  0  0  0  0  0  0  0  0
   -1.9620    1.3323    0.0000 O   0  0  0  0  0  0  0  0  0  0  0  0
   -0.6629    3.5823    0.0000 O   0  0  0  0  0  0  0  0  0  0  0  0
    9.7295    2.0823    0.0000 C   0  0  0  0  0  0  0  0  0  0  0  0
    9.7295    3.5823    0.0000 O   0  0  0  0  0  0  0  0  0  0  0  0
   11.0284    1.3323    0.0000 O   0  0  0  0  0  0  0  0  0  0  0  0
  1  2  1  0  0  0  0
  2  3  1  0  0  0  0
  3  4  1  0  0  0  0
  5  4  2  0  0  0  0
  4 21  1  0  0  0  0
  6  5  1  0  0  0  0
  5 11  1  0  0  0  0
  7  6  1  0  0  0  0
  8  7  2  0  0  0  0
  7 25  1  0  0  0  0
  9  8  1  0  0  0  0
  9 10  2  0  0  0  0
 11  9  1  0  0  0  0
 12 11  2  0  0  0  0
 13 12  1  0  0  0  0
 14 13  1  0  0  0  0
 13 21  2  0  0  0  0
 14 15  2  0  0  0  0
 16 14  1  0  0  0  0
 17 16  2  0  0  0  0
 18 17  1  0  0  0  0
 17 22  1  0  0  0  0
 18 19  1  0  0  0  0
 21 18  1  0  0  0  0
 19 20  1  0  0  0  0
 22 23  2  0  0  0  0
 22 24  1  0  0  0  0
 25 26  2  0  0  0  0
 25 27  1  0  0  0  0
M  END
> <Inchi_key>
RQTOOFIXOKYGAN-UHFFFAOYSA-N

> <Source>
Mulliner , Kotsampasakou

> <ID>
EK0377;HT1469

> <H_MFHB>
0

> <CAS>


> <Cholestasis>
0

> <Name>
nedocromil sodium;nedocromil

> <Class>
0


$$$$