
  -INDIGO-08031710012D

 13 14  0  0  0  0  0  0  0  0999 V2000
    5.0192   -1.2990    0.0000 O   0  0  0  0  0  0  0  0  0  0  0  0
    4.2692   -0.0000    0.0000 C   0  0  0  0  0  0  0  0  0  0  0  0
    5.0192    1.2990    0.0000 C   0  0  0  0  0  0  0  0  0  0  0  0
    6.5192    1.2990    0.0000 I   0  0  0  0  0  0  0  0  0  0  0  0
    4.2692    2.5981    0.0000 C   0  0  0  0  0  0  0  0  0  0  0  0
    2.7692    2.5981    0.0000 C   0  0  0  0  0  0  0  0  0  0  0  0
    2.0192    3.8971    0.0000 I   0  0  0  0  0  0  0  0  0  0  0  0
    2.0192    1.2990    0.0000 C   0  0  0  0  0  0  0  0  0  0  0  0
    0.5192    1.2990    0.0000 C   0  0  0  0  0  0  0  0  0  0  0  0
   -0.2308   -0.0000    0.0000 C   0  0  0  0  0  0  0  0  0  0  0  0
    0.5192   -1.2990    0.0000 C   0  0  0  0  0  0  0  0  0  0  0  0
    2.0192   -1.2990    0.0000 N   0  0  0  0  0  0  0  0  0  0  0  0
    2.7692   -0.0000    0.0000 C   0  0  0  0  0  0  0  0  0  0  0  0
  1  2  1  0  0  0  0
  3  2  2  0  0  0  0
  2 13  1  0  0  0  0
  3  4  1  0  0  0  0
  5  3  1  0  0  0  0
  6  5  2  0  0  0  0
  6  7  1  0  0  0  0
  8  6  1  0  0  0  0
  9  8  1  0  0  0  0
  8 13  2  0  0  0  0
 10  9  2  0  0  0  0
 11 10  1  0  0  0  0
 12 11  2  0  0  0  0
 13 12  1  0  0  0  0
M  END
> <Inchi_key>
UXZFQZANDVDGMM-UHFFFAOYSA-N

> <Source>
Mulliner

> <ID>
HT3749

> <H_MFHB>
0

> <CAS>


> <Cholestasis>


> <Name>


> <Class>
0

$$$$