

  -INDIGO-08031710012D

 13 13  0  0  0  0  0  0  0  0999 V2000
   -0.3533    0.6120    0.0000 C   0  0  0  0  0  0  0  0  0  0  0  0
    0.3967    1.9110    0.0000 C   0  0  0  0  0  0  0  0  0  0  0  0
    1.8967    1.9110    0.0000 C   0  0  0  0  0  0  0  0  0  0  0  0
    1.1467    3.2101    0.0000 C   0  0  0  0  0  0  0  0  0  0  0  0
   -0.3533    3.2101    0.0000 C   0  0  0  0  0  0  0  0  0  0  0  0
    1.8967    0.4110    0.0000 C   0  0  0  0  0  0  0  0  0  0  0  0
    0.5976   -0.3390    0.0000 O   0  0  0  0  0  0  0  0  0  0  0  0
    3.1957   -0.3390    0.0000 N   0  0  0  0  0  0  0  0  0  0  0  0
    4.4947    0.4110    0.0000 C   0  0  0  0  0  0  0  0  0  0  0  0
    4.4947    1.9110    0.0000 C   0  0  0  0  0  0  0  0  0  0  0  0
    5.7938    2.6610    0.0000 C   0  0  0  0  0  0  0  0  0  0  0  0
    3.1957    2.6610    0.0000 C   0  0  0  0  0  0  0  0  0  0  0  0
    3.1957    4.1610    0.0000 O   0  0  0  0  0  0  0  0  0  0  0  0
  1  2  1  0  0  0  0
  2  3  1  0  0  0  0
  3  4  1  0  0  0  0
  6  3  1  0  0  0  0
  3 12  1  0  0  0  0
  4  5  1  0  0  0  0
  6  7  2  0  0  0  0
  8  6  1  0  0  0  0
  9  8  1  0  0  0  0
 10  9  1  0  0  0  0
 10 11  1  0  0  0  0
 12 10  1  0  0  0  0
 12 13  2  0  0  0  0
M  END
> <Inchi_key>
SIDLZWOQUZRBRU-UHFFFAOYSA-N

> <Source>
Mulliner

> <ID>
HT1371

> <H_MFHB>
0

> <CAS>


> <Cholestasis>


> <Name>
methyprylon

> <Class>
0


$$$$