

  -INDIGO-08031710012D

 26 28  0  0  0  0  0  0  0  0999 V2000
    5.0202    1.4197    0.0000 C   0  0  0  0  0  0  0  0  0  0  0  0
    5.0123    2.9197    0.0000 C   0  0  0  0  0  0  0  0  0  0  0  0
    3.7095    3.6629    0.0000 N   0  0  0  0  0  0  0  0  0  0  0  0
    2.4143    2.9062    0.0000 C   0  0  0  0  0  0  0  0  0  0  0  0
    1.1115    3.6495    0.0000 C   0  0  0  0  0  0  0  0  0  0  0  0
   -0.1837    2.8928    0.0000 N   0  0  0  0  0  0  0  0  0  0  0  0
   -0.3328    1.4002    0.0000 C   0  0  0  0  0  0  0  0  0  0  0  0
   -1.7984    1.0808    0.0000 N   0  0  0  0  0  0  0  0  0  0  0  0
   -2.5551    2.3759    0.0000 C   0  0  0  0  0  0  0  0  0  0  0  0
   -4.0238    2.6802    0.0000 N   0  0  0  0  0  0  0  0  0  0  0  0
   -5.0217    1.5603    0.0000 C   0  0  0  0  0  0  0  0  0  0  0  0
   -4.4949    4.1044    0.0000 C   0  0  0  0  0  0  0  0  0  0  0  0
   -5.9636    4.4086    0.0000 O   0  0  0  0  0  0  0  0  0  0  0  0
   -3.4969    5.2243    0.0000 N   0  0  0  0  0  0  0  0  0  0  0  0
   -3.9678    6.6484    0.0000 C   0  0  0  0  0  0  0  0  0  0  0  0
   -2.0280    4.9200    0.0000 C   0  0  0  0  0  0  0  0  0  0  0  0
   -1.0300    6.0399    0.0000 O   0  0  0  0  0  0  0  0  0  0  0  0
   -1.5571    3.4958    0.0000 C   0  0  0  0  0  0  0  0  0  0  0  0
    6.3075    3.6764    0.0000 C   0  0  0  0  0  0  0  0  0  0  0  0
    6.2998    5.1763    0.0000 O   0  0  0  0  0  0  0  0  0  0  0  0
    7.6103    2.9331    0.0000 C   0  0  0  0  0  0  0  0  0  0  0  0
    7.6182    1.4331    0.0000 C   0  0  0  0  0  0  0  0  0  0  0  0
    8.9210    0.6898    0.0000 C   0  0  0  0  0  0  0  0  0  0  0  0
   10.2162    1.4465    0.0000 C   0  0  0  0  0  0  0  0  0  0  0  0
   10.2085    2.9465    0.0000 C   0  0  0  0  0  0  0  0  0  0  0  0
    8.9057    3.6898    0.0000 C   0  0  0  0  0  0  0  0  0  0  0  0
  1  2  1  0  0  0  0
  2  3  1  0  0  0  0
  2 19  1  0  0  0  0
  3  4  1  0  0  0  0
  4  5  1  0  0  0  0
  5  6  1  0  0  0  0
  7  6  1  0  0  0  0
  6 18  1  0  0  0  0
  8  7  2  0  0  0  0
  9  8  1  0  0  0  0
 10  9  1  0  0  0  0
  9 18  2  0  0  0  0
 10 11  1  0  0  0  0
 12 10  1  0  0  0  0
 12 13  2  0  0  0  0
 14 12  1  0  0  0  0
 14 15  1  0  0  0  0
 16 14  1  0  0  0  0
 16 17  2  0  0  0  0
 18 16  1  0  0  0  0
 19 20  1  0  0  0  0
 19 21  1  0  0  0  0
 22 21  2  0  0  0  0
 21 26  1  0  0  0  0
 23 22  1  0  0  0  0
 24 23  2  0  0  0  0
 25 24  1  0  0  0  0
 26 25  2  0  0  0  0
M  END
> <Inchi_key>
UJSKUDDDPKGBJY-UHFFFAOYSA-N

> <Source>
Mulliner

> <ID>
HT3627

> <H_MFHB>
0

> <CAS>


> <Cholestasis>


> <Name>


> <Class>
0


$$$$