

  -INDIGO-08031710012D

 36 39  0  0  0  0  0  0  0  0999 V2000
   -0.3459    5.3308    0.0000 C   0  0  0  0  0  0  0  0  0  0  0  0
    1.1415    5.5246    0.0000 C   0  0  0  0  0  0  0  0  0  0  0  0
    2.0532    4.3334    0.0000 C   0  0  0  0  0  0  0  0  0  0  0  0
    3.5406    4.5273    0.0000 C   0  0  0  0  0  0  0  0  0  0  0  0
    4.1163    5.9124    0.0000 O   0  0  0  0  0  0  0  0  0  0  0  0
    4.4520    3.3361    0.0000 O   0  0  0  0  0  0  0  0  0  0  0  0
    5.9394    3.5299    0.0000 C   0  0  0  0  0  0  0  0  0  0  0  0
    5.8237    5.0255    0.0000 C   0  0  0  0  0  0  0  0  0  0  0  0
    7.2102    5.5977    0.0000 C   0  0  0  0  0  0  0  0  0  0  0  0
    8.1829    4.4558    0.0000 C   0  0  0  0  0  0  0  0  0  0  0  0
    9.6826    4.4147    0.0000 C   0  0  0  0  0  0  0  0  0  0  0  0
   10.4678    5.6926    0.0000 C   0  0  0  0  0  0  0  0  0  0  0  0
   11.9672    5.6513    0.0000 C   0  0  0  0  0  0  0  0  0  0  0  0
   12.7527    6.9293    0.0000 F   0  0  0  0  0  0  0  0  0  0  0  0
   12.6814    4.3322    0.0000 C   0  0  0  0  0  0  0  0  0  0  0  0
   14.1808    4.2910    0.0000 C   0  0  0  0  0  0  0  0  0  0  0  0
   14.8948    2.9719    0.0000 C   0  0  0  0  0  0  0  0  0  0  0  0
   16.3942    2.9306    0.0000 O   0  0  0  0  0  0  0  0  0  0  0  0
   14.1093    1.6939    0.0000 C   0  0  0  0  0  0  0  0  0  0  0  0
   12.6099    1.7351    0.0000 C   0  0  0  0  0  0  0  0  0  0  0  0
   11.8959    3.0543    0.0000 C   0  0  0  0  0  0  0  0  0  0  0  0
   11.1105    1.7762    0.0000 C   0  0  0  0  0  0  0  0  0  0  0  0
   10.3965    3.0955    0.0000 C   0  0  0  0  0  0  0  0  0  0  0  0
    8.8971    3.1367    0.0000 F   0  0  0  0  0  0  0  0  0  0  0  0
    9.6111    1.8175    0.0000 C   0  0  0  0  0  0  0  0  0  0  0  0
   10.3250    0.4984    0.0000 O   0  0  0  0  0  0  0  0  0  0  0  0
    8.1116    1.8587    0.0000 C   0  0  0  0  0  0  0  0  0  0  0  0
    7.3977    3.1779    0.0000 C   0  0  0  0  0  0  0  0  0  0  0  0
    6.5039    1.9732    0.0000 C   0  0  0  0  0  0  0  0  0  0  0  0
    5.4124    2.1256    0.0000 C   0  0  0  0  0  0  0  0  0  0  0  0
    6.3650    0.9669    0.0000 O   0  0  0  0  0  0  0  0  0  0  0  0
    3.9327    1.8800    0.0000 C   0  0  0  0  0  0  0  0  0  0  0  0
    3.4055    0.4756    0.0000 O   0  0  0  0  0  0  0  0  0  0  0  0
    1.9257    0.2299    0.0000 C   0  0  0  0  0  0  0  0  0  0  0  0
    1.3985   -1.1744    0.0000 O   0  0  0  0  0  0  0  0  0  0  0  0
    0.9732    1.3886    0.0000 C   0  0  0  0  0  0  0  0  0  0  0  0
  1  2  1  0  0  0  0
  2  3  1  0  0  0  0
  3  4  1  0  0  0  0
  4  5  2  0  0  0  0
  4  6  1  0  0  0  0
  6  7  1  0  0  0  0
  8  7  1  0  0  0  0
  7 28  1  0  0  0  0
  7 30  1  0  0  0  0
  9  8  1  0  0  0  0
 10  9  1  0  0  0  0
 11 10  1  0  0  0  0
 10 28  1  0  0  0  0
 12 11  1  0  0  0  0
 11 23  1  0  0  0  0
 13 12  1  0  0  0  0
 13 14  1  0  0  0  0
 15 13  1  0  0  0  0
 16 15  2  0  0  0  0
 15 21  1  0  0  0  0
 17 16  1  0  0  0  0
 17 18  2  0  0  0  0
 19 17  1  0  0  0  0
 20 19  2  0  0  0  0
 21 20  1  0  0  0  0
 21 22  1  0  0  0  0
 23 21  1  0  0  0  0
 23 24  1  0  0  0  0
 25 23  1  0  0  0  0
 25 26  1  0  0  0  0
 27 25  1  0  0  0  0
 28 27  1  0  0  0  0
 28 29  1  0  0  0  0
 30 31  2  0  0  0  0
 30 32  1  0  0  0  0
 32 33  1  0  0  0  0
 33 34  1  0  0  0  0
 34 35  2  0  0  0  0
 34 36  1  0  0  0  0
M  END
> <Inchi_key>
WYQPLTPSGFELIB-UHFFFAOYSA-N

> <Source>
Mulliner

> <ID>
HT0663

> <H_MFHB>
0

> <CAS>


> <Cholestasis>


> <Name>
difluprednate

> <Class>
0


$$$$