
  -INDIGO-08031710012D

 10  9  0  0  0  0  0  0  0  0999 V2000
   -0.2476    0.9240    0.0000 Cl  0  0  0  0  0  0  0  0  0  0  0  0
    1.0514    1.6740    0.0000 C   0  0  0  0  0  0  0  0  0  0  0  0
    2.3505    0.9240    0.0000 C   0  0  0  0  0  0  0  0  0  0  0  0
    2.3505   -0.5760    0.0000 Cl  0  0  0  0  0  0  0  0  0  0  0  0
    3.6495    1.6740    0.0000 C   0  0  0  0  0  0  0  0  0  0  0  0
    4.9486    0.9240    0.0000 C   0  0  0  0  0  0  0  0  0  0  0  0
    4.9486   -0.5760    0.0000 Cl  0  0  0  0  0  0  0  0  0  0  0  0
    6.2476    1.6740    0.0000 Cl  0  0  0  0  0  0  0  0  0  0  0  0
    3.6495    3.1740    0.0000 Cl  0  0  0  0  0  0  0  0  0  0  0  0
    1.0514    3.1740    0.0000 Cl  0  0  0  0  0  0  0  0  0  0  0  0
  1  2  1  0  0  0  0
  2  3  2  0  0  0  0
  2 10  1  0  0  0  0
  3  4  1  0  0  0  0
  3  5  1  0  0  0  0
  5  6  2  0  0  0  0
  5  9  1  0  0  0  0
  6  7  1  0  0  0  0
  6  8  1  0  0  0  0
M  END
> <Inchi_key>
RWNKSTSCBHKHTB-UHFFFAOYSA-N

> <Source>
Mulliner

> <ID>
HT1029

> <H_MFHB>
0

> <CAS>
87-68-3

> <Cholestasis>


> <Name>
hexachloro-1,3-butadiene

> <Class>
0

$$$$