

  -INDIGO-08031710012D

  7  6  0  0  0  0  0  0  0  0999 V2000
   -0.3614    1.3488    0.0000 O   0  0  0  0  0  0  0  0  0  0  0  0
    0.9376    2.0988    0.0000 C   0  0  0  0  0  0  0  0  0  0  0  0
    2.2367    1.3488    0.0000 C   0  0  0  0  0  0  0  0  0  0  0  0
    3.5358    2.0988    0.0000 C   0  0  0  0  0  0  0  0  0  0  0  0
    4.8349    1.3488    0.0000 C   0  0  0  0  0  0  0  0  0  0  0  0
    6.1338    2.0988    0.0000 C   0  0  0  0  0  0  0  0  0  0  0  0
    7.4328    1.3488    0.0000 O   0  0  0  0  0  0  0  0  0  0  0  0
  1  2  2  0  0  0  0
  2  3  1  0  0  0  0
  3  4  1  0  0  0  0
  4  5  1  0  0  0  0
  5  6  1  0  0  0  0
  6  7  2  0  0  0  0
M  END
> <Inchi_key>
SXRSQZLOMIGNAQ-UHFFFAOYSA-N

> <Source>
Mulliner

> <ID>
HT2408

> <H_MFHB>
0

> <CAS>
111-30-8

> <Cholestasis>


> <Name>


> <Class>
0


$$$$