

  -INDIGO-08031710012D

 16 16  0  0  0  0  0  0  0  0999 V2000
    3.2218    1.3719    0.0000 C   0  0  0  0  0  0  0  0  0  0  0  0
    3.2218   -0.1281    0.0000 C   0  0  0  0  0  0  0  0  0  0  0  0
    1.9228   -0.8781    0.0000 C   0  0  0  0  0  0  0  0  0  0  0  0
    3.2218   -1.6281    0.0000 C   0  0  0  0  0  0  0  0  0  0  0  0
    4.5208   -0.8781    0.0000 C   0  0  0  0  0  0  0  0  0  0  0  0
    5.8199   -1.6281    0.0000 C   0  0  0  0  0  0  0  0  0  0  0  0
    5.8199   -3.1281    0.0000 C   0  0  0  0  0  0  0  0  0  0  0  0
    7.1189   -0.8781    0.0000 C   0  0  0  0  0  0  0  0  0  0  0  0
    1.1728   -2.1771    0.0000 C   0  0  0  0  0  0  0  0  0  0  0  0
    1.9228   -3.4761    0.0000 O   0  0  0  0  0  0  0  0  0  0  0  0
   -0.3271   -2.1771    0.0000 N   0  0  0  0  0  0  0  0  0  0  0  0
   -1.0773   -0.8781    0.0000 C   0  0  0  0  0  0  0  0  0  0  0  0
   -2.5772   -0.8781    0.0000 O   0  0  0  0  0  0  0  0  0  0  0  0
   -0.3271    0.4210    0.0000 N   0  0  0  0  0  0  0  0  0  0  0  0
    1.1728    0.4210    0.0000 C   0  0  0  0  0  0  0  0  0  0  0  0
    1.9228    1.7200    0.0000 O   0  0  0  0  0  0  0  0  0  0  0  0
  1  2  1  0  0  0  0
  2  3  1  0  0  0  0
  3  4  1  0  0  0  0
  9  3  1  0  0  0  0
  3 15  1  0  0  0  0
  4  5  1  0  0  0  0
  5  6  1  0  0  0  0
  6  7  1  0  0  0  0
  6  8  1  0  0  0  0
  9 10  2  0  0  0  0
 11  9  1  0  0  0  0
 12 11  1  0  0  0  0
 12 13  2  0  0  0  0
 14 12  1  0  0  0  0
 15 14  1  0  0  0  0
 15 16  2  0  0  0  0
M  END
> <Inchi_key>
VIROVYVQCGLCII-UHFFFAOYSA-N

> <Source>
Mulliner , Kotsampasakou

> <ID>
EK0031;HT0146

> <H_MFHB>
0

> <CAS>


> <Cholestasis>
0

> <Name>
amobarbital sodium;amobarbital

> <Class>
0


$$$$