
  -INDIGO-08031710012D

 28 30  0  0  0  0  0  0  0  0999 V2000
   18.0478    3.0403    0.0000 C   0  0  0  0  0  0  0  0  0  0  0  0
   17.0444    4.1554    0.0000 C   0  0  0  0  0  0  0  0  0  0  0  0
   17.5086    5.5818    0.0000 C   0  0  0  0  0  0  0  0  0  0  0  0
   15.5773    3.8441    0.0000 C   0  0  0  0  0  0  0  0  0  0  0  0
   14.5739    4.9593    0.0000 C   0  0  0  0  0  0  0  0  0  0  0  0
   13.1065    4.6480    0.0000 C   0  0  0  0  0  0  0  0  0  0  0  0
   12.1034    5.7631    0.0000 C   0  0  0  0  0  0  0  0  0  0  0  0
   12.5673    7.1895    0.0000 C   0  0  0  0  0  0  0  0  0  0  0  0
   10.6360    5.4518    0.0000 C   0  0  0  0  0  0  0  0  0  0  0  0
   10.0252    4.0817    0.0000 C   0  0  0  0  0  0  0  0  0  0  0  0
    8.5336    4.2391    0.0000 C   0  0  0  0  0  0  0  0  0  0  0  0
    8.2224    5.7065    0.0000 C   0  0  0  0  0  0  0  0  0  0  0  0
    6.9237    6.4570    0.0000 C   0  0  0  0  0  0  0  0  0  0  0  0
    5.6243    5.7075    0.0000 C   0  0  0  0  0  0  0  0  0  0  0  0
    4.3256    6.4580    0.0000 C   0  0  0  0  0  0  0  0  0  0  0  0
    3.0262    5.7085    0.0000 C   0  0  0  0  0  0  0  0  0  0  0  0
    1.7275    6.4590    0.0000 C   0  0  0  0  0  0  0  0  0  0  0  0
    0.4282    5.7096    0.0000 C   0  0  0  0  0  0  0  0  0  0  0  0
   -0.8706    6.4601    0.0000 O   0  0  0  0  0  0  0  0  0  0  0  0
    0.4276    4.2096    0.0000 C   0  0  0  0  0  0  0  0  0  0  0  0
    1.7263    3.4590    0.0000 C   0  0  0  0  0  0  0  0  0  0  0  0
    3.0257    4.2085    0.0000 C   0  0  0  0  0  0  0  0  0  0  0  0
    4.3244    3.4580    0.0000 C   0  0  0  0  0  0  0  0  0  0  0  0
    6.9242    7.9570    0.0000 C   0  0  0  0  0  0  0  0  0  0  0  0
    8.2236    8.7065    0.0000 C   0  0  0  0  0  0  0  0  0  0  0  0
    9.5223    7.9559    0.0000 C   0  0  0  0  0  0  0  0  0  0  0  0
    9.5217    6.4559    0.0000 C   0  0  0  0  0  0  0  0  0  0  0  0
   10.8814    7.0893    0.0000 C   0  0  0  0  0  0  0  0  0  0  0  0
  1  2  1  0  0  0  0
  2  3  1  0  0  0  0
  2  4  1  0  0  0  0
  4  5  1  0  0  0  0
  5  6  1  0  0  0  0
  6  7  1  0  0  0  0
  7  8  1  0  0  0  0
  7  9  1  0  0  0  0
 10  9  1  0  0  0  0
  9 27  1  0  0  0  0
 11 10  1  0  0  0  0
 12 11  1  0  0  0  0
 13 12  1  0  0  0  0
 12 27  1  0  0  0  0
 13 14  2  0  0  0  0
 24 13  1  0  0  0  0
 14 15  1  0  0  0  0
 15 16  2  0  0  0  0
 17 16  1  0  0  0  0
 16 22  1  0  0  0  0
 18 17  1  0  0  0  0
 18 19  1  0  0  0  0
 20 18  1  0  0  0  0
 21 20  1  0  0  0  0
 22 21  1  0  0  0  0
 22 23  2  0  0  0  0
 25 24  1  0  0  0  0
 26 25  1  0  0  0  0
 27 26  1  0  0  0  0
 27 28  1  0  0  0  0
M  END
> <Inchi_key>
QYSXJUFSXHHAJI-GGULSIJQSA-N, QYSXJUFSXHHAJI-FWSOMWAYSA-N

> <Source>
Mulliner,  Kotsampasakou

> <ID>
EK0568;HT2190

> <H_MFHB>
0

> <CAS>


> <Cholestasis>
0

> <Name>
vitamin d;cholecalciferol;vitamin d3 (cholecalciferol)

> <Class>
0

$$$$