
  -INDIGO-08031710012D

 57 59  0  0  0  0  0  0  0  0999 V2000
    0.1513    0.5645    0.0000 C   0  0  0  0  0  0  0  0  0  0  0  0
    1.4504   -0.1855    0.0000 C   0  0  0  0  0  0  0  0  0  0  0  0
    1.4504   -1.6855    0.0000 C   0  0  0  0  0  0  0  0  0  0  0  0
    2.7493   -2.4355    0.0000 C   0  0  0  0  0  0  0  0  0  0  0  0
    4.0484   -1.6855    0.0000 C   0  0  0  0  0  0  0  0  0  0  0  0
    4.0484   -0.1855    0.0000 C   0  0  0  0  0  0  0  0  0  0  0  0
    5.3475    0.5645    0.0000 C   0  0  0  0  0  0  0  0  0  0  0  0
    6.6463   -0.1855    0.0000 C   0  0  0  0  0  0  0  0  0  0  0  0
    6.6463   -1.6855    0.0000 C   0  0  0  0  0  0  0  0  0  0  0  0
    7.9454   -2.4355    0.0000 C   0  0  0  0  0  0  0  0  0  0  0  0
    9.2445   -1.6855    0.0000 C   0  0  0  0  0  0  0  0  0  0  0  0
    9.2445   -0.1855    0.0000 C   0  0  0  0  0  0  0  0  0  0  0  0
   10.5436    0.5645    0.0000 C   0  0  0  0  0  0  0  0  0  0  0  0
   11.8427   -0.1855    0.0000 C   0  0  0  0  0  0  0  0  0  0  0  0
   11.8427   -1.6855    0.0000 C   0  0  0  0  0  0  0  0  0  0  0  0
   13.1416   -2.4355    0.0000 C   0  0  0  0  0  0  0  0  0  0  0  0
   14.4407   -1.6855    0.0000 C   0  0  0  0  0  0  0  0  0  0  0  0
   14.4407   -0.1855    0.0000 C   0  0  0  0  0  0  0  0  0  0  0  0
   13.1416    0.5645    0.0000 C   0  0  0  0  0  0  0  0  0  0  0  0
   13.1416    2.0645    0.0000 O   0  0  0  0  0  0  0  0  0  0  0  0
   14.4407    2.8145    0.0000 C   0  0  0  0  0  0  0  0  0  0  0  0
   14.4407    4.3145    0.0000 C   0  0  0  0  0  0  0  0  0  0  0  0
   15.7398    5.0645    0.0000 O   0  0  0  0  0  0  0  0  0  0  0  0
   13.1416   -3.9355    0.0000 C   0  0  0  0  0  0  0  0  0  0  0  0
   11.8427   -4.6855    0.0000 C   0  0  0  0  0  0  0  0  0  0  0  0
   14.4407   -3.1855    0.0000 C   0  0  0  0  0  0  0  0  0  0  0  0
   14.4407   -4.6855    0.0000 C   0  0  0  0  0  0  0  0  0  0  0  0
   14.4407   -6.1855    0.0000 C   0  0  0  0  0  0  0  0  0  0  0  0
   15.9407   -6.1855    0.0000 C   0  0  0  0  0  0  0  0  0  0  0  0
   12.9406   -6.1855    0.0000 C   0  0  0  0  0  0  0  0  0  0  0  0
   14.4407   -7.6855    0.0000 C   0  0  0  0  0  0  0  0  0  0  0  0
    7.9454    0.5645    0.0000 C   0  0  0  0  0  0  0  0  0  0  0  0
    7.9454    2.0645    0.0000 O   0  0  0  0  0  0  0  0  0  0  0  0
    9.2445    2.8145    0.0000 C   0  0  0  0  0  0  0  0  0  0  0  0
    9.2445    4.3145    0.0000 C   0  0  0  0  0  0  0  0  0  0  0  0
    7.9454    5.0645    0.0000 O   0  0  0  0  0  0  0  0  0  0  0  0
    7.9454   -3.9355    0.0000 C   0  0  0  0  0  0  0  0  0  0  0  0
    9.2445   -4.6855    0.0000 C   0  0  0  0  0  0  0  0  0  0  0  0
    6.6463   -3.1855    0.0000 C   0  0  0  0  0  0  0  0  0  0  0  0
    6.6463   -4.6855    0.0000 C   0  0  0  0  0  0  0  0  0  0  0  0
    6.6463   -6.1855    0.0000 C   0  0  0  0  0  0  0  0  0  0  0  0
    6.6463   -7.6855    0.0000 C   0  0  0  0  0  0  0  0  0  0  0  0
    5.1465   -6.1855    0.0000 C   0  0  0  0  0  0  0  0  0  0  0  0
    8.1463   -6.1855    0.0000 C   0  0  0  0  0  0  0  0  0  0  0  0
    2.7493    0.5645    0.0000 C   0  0  0  0  0  0  0  0  0  0  0  0
    2.7493    2.0645    0.0000 O   0  0  0  0  0  0  0  0  0  0  0  0
    1.4504    2.8145    0.0000 C   0  0  0  0  0  0  0  0  0  0  0  0
    1.4504    4.3145    0.0000 C   0  0  0  0  0  0  0  0  0  0  0  0
    0.1513    5.0645    0.0000 O   0  0  0  0  0  0  0  0  0  0  0  0
    2.7493   -3.9355    0.0000 C   0  0  0  0  0  0  0  0  0  0  0  0
    4.2493   -3.9355    0.0000 C   0  0  0  0  0  0  0  0  0  0  0  0
    1.2492   -3.9355    0.0000 C   0  0  0  0  0  0  0  0  0  0  0  0
    2.7493   -5.4355    0.0000 C   0  0  0  0  0  0  0  0  0  0  0  0
    1.4504   -6.1855    0.0000 C   0  0  0  0  0  0  0  0  0  0  0  0
    0.1513   -5.4355    0.0000 C   0  0  0  0  0  0  0  0  0  0  0  0
    1.4504   -7.6855    0.0000 C   0  0  0  0  0  0  0  0  0  0  0  0
    2.7493   -6.9355    0.0000 C   0  0  0  0  0  0  0  0  0  0  0  0
  1  2  1  0  0  0  0
  3  2  2  0  0  0  0
  2 45  1  0  0  0  0
  4  3  1  0  0  0  0
  5  4  2  0  0  0  0
  4 50  1  0  0  0  0
  6  5  1  0  0  0  0
  6  7  1  0  0  0  0
 45  6  2  0  0  0  0
  7  8  1  0  0  0  0
  9  8  2  0  0  0  0
  8 32  1  0  0  0  0
 10  9  1  0  0  0  0
 11 10  2  0  0  0  0
 10 37  1  0  0  0  0
 12 11  1  0  0  0  0
 12 13  1  0  0  0  0
 32 12  2  0  0  0  0
 13 14  1  0  0  0  0
 15 14  2  0  0  0  0
 14 19  1  0  0  0  0
 16 15  1  0  0  0  0
 17 16  2  0  0  0  0
 16 24  1  0  0  0  0
 18 17  1  0  0  0  0
 19 18  2  0  0  0  0
 19 20  1  0  0  0  0
 20 21  1  0  0  0  0
 21 22  1  0  0  0  0
 22 23  1  0  0  0  0
 24 25  1  0  0  0  0
 24 26  1  0  0  0  0
 24 27  1  0  0  0  0
 27 28  1  0  0  0  0
 28 29  1  0  0  0  0
 28 30  1  0  0  0  0
 28 31  1  0  0  0  0
 32 33  1  0  0  0  0
 33 34  1  0  0  0  0
 34 35  1  0  0  0  0
 35 36  1  0  0  0  0
 37 38  1  0  0  0  0
 37 39  1  0  0  0  0
 37 40  1  0  0  0  0
 40 41  1  0  0  0  0
 41 42  1  0  0  0  0
 41 43  1  0  0  0  0
 41 44  1  0  0  0  0
 45 46  1  0  0  0  0
 46 47  1  0  0  0  0
 47 48  1  0  0  0  0
 48 49  1  0  0  0  0
 50 51  1  0  0  0  0
 50 52  1  0  0  0  0
 50 53  1  0  0  0  0
 53 54  1  0  0  0  0
 54 55  1  0  0  0  0
 54 56  1  0  0  0  0
 54 57  1  0  0  0  0
M  END
> <Inchi_key>
UTFVNNPSMPINLE-UHFFFAOYSA-N

> <Source>
Mulliner

> <ID>
HT2146

> <H_MFHB>
0

> <CAS>


> <Cholestasis>


> <Name>
tyloxapol

> <Class>
0

$$$$