

  -INDIGO-08031710012D

 18 19  0  0  0  0  0  0  0  0999 V2000
    0.0031    0.0621    0.0000 C   0  0  0  0  0  0  0  0  0  0  0  0
    1.4956   -0.0862    0.0000 C   0  0  0  0  0  0  0  0  0  0  0  0
    2.2531   -1.3809    0.0000 N   0  0  0  0  0  0  0  0  0  0  0  0
    3.7185   -1.0607    0.0000 O   0  0  0  0  0  0  0  0  0  0  0  0
    3.8668    0.4319    0.0000 C   0  0  0  0  0  0  0  0  0  0  0  0
    5.1615    1.1893    0.0000 N   0  0  0  0  0  0  0  0  0  0  0  0
    6.4649    0.4467    0.0000 S   0  0  0  0  0  0  0  0  0  0  0  0
    7.2076    1.7499    0.0000 O   0  0  0  0  0  0  0  0  0  0  0  0
    5.7223   -0.8566    0.0000 O   0  0  0  0  0  0  0  0  0  0  0  0
    7.7680   -0.2959    0.0000 C   0  0  0  0  0  0  0  0  0  0  0  0
    7.7767   -1.7959    0.0000 C   0  0  0  0  0  0  0  0  0  0  0  0
    9.0801   -2.5385    0.0000 C   0  0  0  0  0  0  0  0  0  0  0  0
   10.3747   -1.7812    0.0000 C   0  0  0  0  0  0  0  0  0  0  0  0
   11.6780   -2.5238    0.0000 N   0  0  0  0  0  0  0  0  0  0  0  0
   10.3661   -0.2812    0.0000 C   0  0  0  0  0  0  0  0  0  0  0  0
    9.0630    0.4614    0.0000 C   0  0  0  0  0  0  0  0  0  0  0  0
    2.4931    1.0342    0.0000 C   0  0  0  0  0  0  0  0  0  0  0  0
    2.1729    2.4996    0.0000 C   0  0  0  0  0  0  0  0  0  0  0  0
  1  2  1  0  0  0  0
  3  2  2  0  0  0  0
  2 17  1  0  0  0  0
  4  3  1  0  0  0  0
  5  4  1  0  0  0  0
  5  6  1  0  0  0  0
 17  5  2  0  0  0  0
  6  7  2  0  0  0  0
  7  8  2  0  0  0  0
  7  9  1  0  0  0  0
  7 10  1  0  0  0  0
 11 10  2  0  0  0  0
 10 16  1  0  0  0  0
 12 11  1  0  0  0  0
 13 12  2  0  0  0  0
 13 14  1  0  0  0  0
 15 13  1  0  0  0  0
 16 15  2  0  0  0  0
 17 18  1  0  0  0  0
M  END
> <Inchi_key>
ZGJNKDVWDGLNMO-UHFFFAOYSA-N

> <Source>
Mulliner , Kotsampasakou

> <ID>
EK0496;HT1957

> <H_MFHB>
0

> <CAS>


> <Cholestasis>
0

> <Name>
sulfisoxazole;sulfisoxazole diolamine

> <Class>
0


$$$$