

  -INDIGO-08031710012D

 13 13  0  0  0  0  0  0  0  0999 V2000
   11.1611   -2.9906    0.0000 C   0  0  0  0  0  0  0  0  0  0  0  0
    9.8620   -2.2406    0.0000 C   0  0  0  0  0  0  0  0  0  0  0  0
    8.5630   -2.9906    0.0000 N   0  0  0  0  0  0  0  0  0  0  0  0
    7.2639   -2.2406    0.0000 C   0  0  0  0  0  0  0  0  0  0  0  0
    5.9649   -2.9906    0.0000 C   0  0  0  0  0  0  0  0  0  0  0  0
    5.9649   -4.4906    0.0000 O   0  0  0  0  0  0  0  0  0  0  0  0
    4.6660   -2.2406    0.0000 C   0  0  0  0  0  0  0  0  0  0  0  0
    4.6660   -0.7406    0.0000 C   0  0  0  0  0  0  0  0  0  0  0  0
    3.3669    0.0094    0.0000 C   0  0  0  0  0  0  0  0  0  0  0  0
    2.0679   -0.7406    0.0000 C   0  0  0  0  0  0  0  0  0  0  0  0
    2.0679   -2.2406    0.0000 C   0  0  0  0  0  0  0  0  0  0  0  0
    0.7688   -2.9906    0.0000 O   0  0  0  0  0  0  0  0  0  0  0  0
    3.3669   -2.9906    0.0000 C   0  0  0  0  0  0  0  0  0  0  0  0
  1  2  1  0  0  0  0
  2  3  1  0  0  0  0
  3  4  1  0  0  0  0
  4  5  1  0  0  0  0
  5  6  1  0  0  0  0
  5  7  1  0  0  0  0
  8  7  2  0  0  0  0
  7 13  1  0  0  0  0
  9  8  1  0  0  0  0
 10  9  2  0  0  0  0
 11 10  1  0  0  0  0
 11 12  1  0  0  0  0
 13 11  2  0  0  0  0
M  END
> <Inchi_key>
SQVIAVUSQAWMKL-UHFFFAOYSA-N

> <Source>
Mulliner

> <ID>
HT2779

> <H_MFHB>
0

> <CAS>


> <Cholestasis>


> <Name>


> <Class>
0


$$$$