
  -INDIGO-08031710012D

 20 20  0  0  0  0  0  0  0  0999 V2000
    2.4798    5.8606    0.0000 C   0  0  0  0  0  0  0  0  0  0  0  0
    1.1807    5.1106    0.0000 C   0  0  0  0  0  0  0  0  0  0  0  0
   -0.1185    5.8606    0.0000 C   0  0  0  0  0  0  0  0  0  0  0  0
    1.1807    3.6106    0.0000 C   0  0  0  0  0  0  0  0  0  0  0  0
   -0.1185    2.8606    0.0000 C   0  0  0  0  0  0  0  0  0  0  0  0
   -0.1185    1.3606    0.0000 C   0  0  0  0  0  0  0  0  0  0  0  0
   -1.4174    0.6106    0.0000 O   0  0  0  0  0  0  0  0  0  0  0  0
   -2.7166    1.3606    0.0000 C   0  0  0  0  0  0  0  0  0  0  0  0
   -2.7166    2.8606    0.0000 O   0  0  0  0  0  0  0  0  0  0  0  0
   -4.0155    0.6106    0.0000 C   0  0  0  0  0  0  0  0  0  0  0  0
    1.1807    0.6106    0.0000 C   0  0  0  0  0  0  0  0  0  0  0  0
    1.1807   -0.8894    0.0000 C   0  0  0  0  0  0  0  0  0  0  0  0
    2.4798    1.3606    0.0000 C   0  0  0  0  0  0  0  0  0  0  0  0
    2.4798    2.8606    0.0000 C   0  0  0  0  0  0  0  0  0  0  0  0
    3.7787    3.6106    0.0000 O   0  0  0  0  0  0  0  0  0  0  0  0
    5.0777    2.8606    0.0000 C   0  0  0  0  0  0  0  0  0  0  0  0
    6.3768    3.6106    0.0000 C   0  0  0  0  0  0  0  0  0  0  0  0
    7.6758    2.8606    0.0000 N   0  0  0  0  0  0  0  0  0  0  0  0
    7.6758    1.3606    0.0000 C   0  0  0  0  0  0  0  0  0  0  0  0
    8.9749    3.6106    0.0000 C   0  0  0  0  0  0  0  0  0  0  0  0
  1  2  1  0  0  0  0
  2  3  1  0  0  0  0
  2  4  1  0  0  0  0
  5  4  2  0  0  0  0
  4 14  1  0  0  0  0
  6  5  1  0  0  0  0
  6  7  1  0  0  0  0
 11  6  2  0  0  0  0
  7  8  1  0  0  0  0
  8  9  2  0  0  0  0
  8 10  1  0  0  0  0
 11 12  1  0  0  0  0
 13 11  1  0  0  0  0
 14 13  2  0  0  0  0
 14 15  1  0  0  0  0
 15 16  1  0  0  0  0
 16 17  1  0  0  0  0
 17 18  1  0  0  0  0
 18 19  1  0  0  0  0
 18 20  1  0  0  0  0
M  END
> <Inchi_key>
VRYMTAVOXVTQEF-UHFFFAOYSA-N

> <Source>
Mulliner

> <ID>
HT1439

> <H_MFHB>
0

> <CAS>
964-52-3

> <Cholestasis>


> <Name>
moxisylyte;moxisylyte hydrochloride

> <Class>
0

$$$$