
  -INDIGO-08031710012D

  7  7  0  0  0  0  0  0  0  0999 V2000
    5.1429    0.0000    0.0000 C   0  0  0  0  0  0  0  0  0  0  0  0
    3.6429    0.0000    0.0000 C   0  0  0  0  0  0  0  0  0  0  0  0
    2.8929    1.2990    0.0000 C   0  0  0  0  0  0  0  0  0  0  0  0
    1.3929    1.2990    0.0000 C   0  0  0  0  0  0  0  0  0  0  0  0
    0.6429    0.0000    0.0000 C   0  0  0  0  0  0  0  0  0  0  0  0
    1.3929   -1.2990    0.0000 C   0  0  0  0  0  0  0  0  0  0  0  0
    2.8929   -1.2990    0.0000 C   0  0  0  0  0  0  0  0  0  0  0  0
  1  2  1  0  0  0  0
  3  2  2  0  0  0  0
  2  7  1  0  0  0  0
  4  3  1  0  0  0  0
  5  4  2  0  0  0  0
  6  5  1  0  0  0  0
  7  6  2  0  0  0  0
M  END
> <Inchi_key>
YXFVVABEGXRONW-UHFFFAOYSA-N

> <Source>
Mulliner

> <ID>
HT2386

> <H_MFHB>
0

> <CAS>
108-88-3

> <Cholestasis>


> <Name>


> <Class>
0

$$$$