

  -INDIGO-08031710012D

 17 18  0  0  0  0  0  0  0  0999 V2000
   -0.1257   -2.5355    0.0000 C   0  0  0  0  0  0  0  0  0  0  0  0
    1.3669   -2.6838    0.0000 C   0  0  0  0  0  0  0  0  0  0  0  0
    2.1245   -3.9786    0.0000 O   0  0  0  0  0  0  0  0  0  0  0  0
    3.5898   -3.6584    0.0000 N   0  0  0  0  0  0  0  0  0  0  0  0
    3.7381   -2.1658    0.0000 C   0  0  0  0  0  0  0  0  0  0  0  0
    2.3642   -1.5634    0.0000 C   0  0  0  0  0  0  0  0  0  0  0  0
    5.0328   -1.4084    0.0000 C   0  0  0  0  0  0  0  0  0  0  0  0
    5.0243    0.0916    0.0000 O   0  0  0  0  0  0  0  0  0  0  0  0
    6.3361   -2.1510    0.0000 N   0  0  0  0  0  0  0  0  0  0  0  0
    7.6309   -1.3936    0.0000 N   0  0  0  0  0  0  0  0  0  0  0  0
    8.9342   -2.1362    0.0000 C   0  0  0  0  0  0  0  0  0  0  0  0
   10.2289   -1.3789    0.0000 C   0  0  0  0  0  0  0  0  0  0  0  0
   10.2205    0.1211    0.0000 C   0  0  0  0  0  0  0  0  0  0  0  0
   11.5152    0.8785    0.0000 C   0  0  0  0  0  0  0  0  0  0  0  0
   12.8183    0.1359    0.0000 C   0  0  0  0  0  0  0  0  0  0  0  0
   12.8270   -1.3641    0.0000 C   0  0  0  0  0  0  0  0  0  0  0  0
   11.5322   -2.1215    0.0000 C   0  0  0  0  0  0  0  0  0  0  0  0
  1  2  1  0  0  0  0
  3  2  1  0  0  0  0
  2  6  2  0  0  0  0
  4  3  1  0  0  0  0
  5  4  2  0  0  0  0
  6  5  1  0  0  0  0
  5  7  1  0  0  0  0
  7  8  2  0  0  0  0
  7  9  1  0  0  0  0
  9 10  1  0  0  0  0
 10 11  1  0  0  0  0
 11 12  1  0  0  0  0
 13 12  2  0  0  0  0
 12 17  1  0  0  0  0
 14 13  1  0  0  0  0
 15 14  2  0  0  0  0
 16 15  1  0  0  0  0
 17 16  2  0  0  0  0
M  END
> <Inchi_key>
XKFPYPQQHFEXRZ-UHFFFAOYSA-N

> <Source>
Mulliner , Kotsampasakou

> <ID>
EK0278;HT1129

> <H_MFHB>
0

> <CAS>


> <Cholestasis>
0

> <Name>
isocarboxazid

> <Class>
0


$$$$