

  -INDIGO-08031710012D

 22 26  0  0  0  0  0  0  0  0999 V2000
    3.7371    2.1638    0.0000 O   0  0  0  0  0  0  0  0  0  0  0  0
    2.9905    0.8629    0.0000 C   0  0  0  0  0  0  0  0  0  0  0  0
    3.7408   -0.4321    0.0000 N   0  0  0  0  0  0  0  0  0  0  0  0
    2.9952   -1.7335    0.0000 C   0  0  0  0  0  0  0  0  0  0  0  0
    1.5006   -1.7398    0.0000 C   0  0  0  0  0  0  0  0  0  0  0  0
    0.7522   -3.0411    0.0000 C   0  0  0  0  0  0  0  0  0  0  0  0
   -0.7503   -3.0478    0.0000 C   0  0  0  0  0  0  0  0  0  0  0  0
   -1.5059   -1.7489    0.0000 C   0  0  0  0  0  0  0  0  0  0  0  0
   -0.7604   -0.4474    0.0000 C   0  0  0  0  0  0  0  0  0  0  0  0
   -1.5102    0.8478    0.0000 C   0  0  0  0  0  0  0  0  0  0  0  0
   -0.7645    2.1492    0.0000 C   0  0  0  0  0  0  0  0  0  0  0  0
    0.7321    2.1568    0.0000 C   0  0  0  0  0  0  0  0  0  0  0  0
    1.4877    0.8579    0.0000 C   0  0  0  0  0  0  0  0  0  0  0  0
    0.7426   -0.4424    0.0000 C   0  0  0  0  0  0  0  0  0  0  0  0
    5.2408   -0.4284    0.0000 C   0  0  0  0  0  0  0  0  0  0  0  0
    5.8746    0.8042    0.0000 C   0  0  0  0  0  0  0  0  0  0  0  0
    6.5375   -0.5087    0.0000 N   0  0  0  0  0  0  0  0  0  0  0  0
    8.1130   -0.9322    0.0000 C   0  0  0  0  0  0  0  0  0  0  0  0
    7.4236   -2.1069    0.0000 C   0  0  0  0  0  0  0  0  0  0  0  0
    5.9088   -1.7120    0.0000 C   0  0  0  0  0  0  0  0  0  0  0  0
    4.8603   -2.9219    0.0000 C   0  0  0  0  0  0  0  0  0  0  0  0
    5.1895   -1.8041    0.0000 C   0  0  0  0  0  0  0  0  0  0  0  0
  1  2  2  0  0  0  0
  3  2  1  0  0  0  0
  2 13  1  0  0  0  0
  4  3  1  0  0  0  0
  3 15  1  0  0  0  0
  5  4  1  0  0  0  0
  6  5  1  0  0  0  0
  5 14  1  0  0  0  0
  7  6  1  0  0  0  0
  8  7  1  0  0  0  0
  9  8  1  0  0  0  0
  9 10  1  0  0  0  0
 14  9  2  0  0  0  0
 10 11  2  0  0  0  0
 11 12  1  0  0  0  0
 12 13  2  0  0  0  0
 13 14  1  0  0  0  0
 16 15  1  0  0  0  0
 15 20  1  0  0  0  0
 17 16  1  0  0  0  0
 17 18  1  0  0  0  0
 22 17  1  0  0  0  0
 18 19  1  0  0  0  0
 19 20  1  0  0  0  0
 20 21  1  0  0  0  0
 21 22  1  0  0  0  0
M  END
> <Inchi_key>
CPZBLNMUGSZIPR-UHFFFAOYSA-N

> <Source>
Mulliner , Kotsampasakou

> <ID>
EK0399;HT1583

> <H_MFHB>
0

> <CAS>


> <Cholestasis>
0

> <Name>
palonosetron hydrochloride;palonosetron

> <Class>
0


$$$$