
  -INDIGO-08031710012D

 27 30  0  0  0  0  0  0  0  0999 V2000
    0.5762    2.1657    0.0000 C   0  0  0  0  0  0  0  0  0  0  0  0
    1.8780    1.4201    0.0000 C   0  0  0  0  0  0  0  0  0  0  0  0
    3.2462    2.0349    0.0000 C   0  0  0  0  0  0  0  0  0  0  0  0
    4.2537    0.9236    0.0000 C   0  0  0  0  0  0  0  0  0  0  0  0
    5.7536    0.9287    0.0000 C   0  0  0  0  0  0  0  0  0  0  0  0
    6.4993    2.2303    0.0000 C   0  0  0  0  0  0  0  0  0  0  0  0
    7.9992    2.2354    0.0000 C   0  0  0  0  0  0  0  0  0  0  0  0
    8.7536    0.9390    0.0000 C   0  0  0  0  0  0  0  0  0  0  0  0
   10.2537    0.9441    0.0000 C   0  0  0  0  0  0  0  0  0  0  0  0
   11.0079   -0.3524    0.0000 C   0  0  0  0  0  0  0  0  0  0  0  0
   12.5080   -0.3473    0.0000 O   0  0  0  0  0  0  0  0  0  0  0  0
   10.2624   -1.6540    0.0000 C   0  0  0  0  0  0  0  0  0  0  0  0
    8.7625   -1.6591    0.0000 C   0  0  0  0  0  0  0  0  0  0  0  0
    8.0081   -0.3626    0.0000 C   0  0  0  0  0  0  0  0  0  0  0  0
    7.2624   -1.6642    0.0000 C   0  0  0  0  0  0  0  0  0  0  0  0
    6.5080   -0.3678    0.0000 C   0  0  0  0  0  0  0  0  0  0  0  0
    5.7625   -1.6693    0.0000 C   0  0  0  0  0  0  0  0  0  0  0  0
    6.5170   -2.9658    0.0000 O   0  0  0  0  0  0  0  0  0  0  0  0
    4.2624   -1.6745    0.0000 C   0  0  0  0  0  0  0  0  0  0  0  0
    3.5080   -0.3780    0.0000 C   0  0  0  0  0  0  0  0  0  0  0  0
    2.6520   -1.6097    0.0000 C   0  0  0  0  0  0  0  0  0  0  0  0
    2.0399   -0.0711    0.0000 C   0  0  0  0  0  0  0  0  0  0  0  0
    1.5562   -1.4911    0.0000 O   0  0  0  0  0  0  0  0  0  0  0  0
    0.5592   -0.3109    0.0000 C   0  0  0  0  0  0  0  0  0  0  0  0
   -0.3889    0.8516    0.0000 O   0  0  0  0  0  0  0  0  0  0  0  0
    0.0263   -1.7131    0.0000 C   0  0  0  0  0  0  0  0  0  0  0  0
   -1.4544   -1.9528    0.0000 O   0  0  0  0  0  0  0  0  0  0  0  0
  1  2  1  0  0  0  0
  3  2  1  0  0  0  0
  2 22  1  0  0  0  0
  4  3  1  0  0  0  0
  5  4  1  0  0  0  0
  4 20  1  0  0  0  0
  6  5  1  0  0  0  0
  5 16  1  0  0  0  0
  7  6  1  0  0  0  0
  8  7  1  0  0  0  0
  9  8  2  0  0  0  0
  8 14  1  0  0  0  0
 10  9  1  0  0  0  0
 10 11  2  0  0  0  0
 12 10  1  0  0  0  0
 13 12  2  0  0  0  0
 14 13  1  0  0  0  0
 14 15  1  0  0  0  0
 16 14  1  0  0  0  0
 17 16  1  0  0  0  0
 17 18  2  0  0  0  0
 19 17  1  0  0  0  0
 20 19  1  0  0  0  0
 20 21  1  0  0  0  0
 22 20  1  0  0  0  0
 22 23  1  0  0  0  0
 22 24  1  0  0  0  0
 24 25  2  0  0  0  0
 24 26  1  0  0  0  0
 26 27  1  0  0  0  0
M  END
> <Inchi_key>
PIDANAQULIKBQS-UHFFFAOYSA-N

> <Source>
Mulliner

> <ID>
HT3690

> <H_MFHB>
0

> <CAS>


> <Cholestasis>


> <Name>


> <Class>
0

$$$$