
  -INDIGO-08031710012D

 12 11  0  0  0  0  0  0  0  0999 V2000
    8.9339    2.3938    0.0000 N   0  0  0  0  0  0  0  0  0  0  0  0
    7.6349    1.6438    0.0000 C   0  0  0  0  0  0  0  0  0  0  0  0
    6.3358    2.3938    0.0000 C   0  0  0  0  0  0  0  0  0  0  0  0
    5.0369    1.6438    0.0000 C   0  0  0  0  0  0  0  0  0  0  0  0
    3.7376    2.3938    0.0000 C   0  0  0  0  0  0  0  0  0  0  0  0
    4.4878    3.6929    0.0000 N   0  0  0  0  0  0  0  0  0  0  0  0
    2.9877    1.0948    0.0000 C   0  0  0  0  0  0  0  0  0  0  0  0
    3.7376   -0.2042    0.0000 F   0  0  0  0  0  0  0  0  0  0  0  0
    1.4877    1.0948    0.0000 F   0  0  0  0  0  0  0  0  0  0  0  0
    2.4387    3.1438    0.0000 C   0  0  0  0  0  0  0  0  0  0  0  0
    1.1397    2.3938    0.0000 O   0  0  0  0  0  0  0  0  0  0  0  0
    2.4387    4.6438    0.0000 O   0  0  0  0  0  0  0  0  0  0  0  0
  1  2  1  0  0  0  0
  2  3  1  0  0  0  0
  3  4  1  0  0  0  0
  4  5  1  0  0  0  0
  5  6  1  0  0  0  0
  5  7  1  0  0  0  0
  5 10  1  0  0  0  0
  7  8  1  0  0  0  0
  7  9  1  0  0  0  0
 10 11  2  0  0  0  0
 10 12  1  0  0  0  0
M  END
> <Inchi_key>
VLCYCQAOQCDTCN-UHFFFAOYSA-N

> <Source>
Mulliner

> <ID>
HT0747

> <H_MFHB>
0

> <CAS>


> <Cholestasis>


> <Name>
eflornithine hydrochloride;dfmo

> <Class>
0

$$$$