

  -INDIGO-08031710012D

 18 18  0  0  0  0  0  0  0  0999 V2000
    0.6188    2.5510    0.0000 C   0  0  0  0  0  0  0  0  0  0  0  0
    1.9276    1.8183    0.0000 C   0  0  0  0  0  0  0  0  0  0  0  0
    1.9475    0.3184    0.0000 O   0  0  0  0  0  0  0  0  0  0  0  0
    3.2563   -0.4143    0.0000 P   0  0  0  0  0  0  0  0  0  0  0  0
    3.9891    0.8945    0.0000 S   0  0  0  0  0  0  0  0  0  0  0  0
    2.5237   -1.7232    0.0000 O   0  0  0  0  0  0  0  0  0  0  0  0
    1.0239   -1.7431    0.0000 C   0  0  0  0  0  0  0  0  0  0  0  0
    0.2911   -3.0519    0.0000 C   0  0  0  0  0  0  0  0  0  0  0  0
    4.5653   -1.1470    0.0000 O   0  0  0  0  0  0  0  0  0  0  0  0
    5.8542   -0.3799    0.0000 C   0  0  0  0  0  0  0  0  0  0  0  0
    5.9913    1.1139    0.0000 N   0  0  0  0  0  0  0  0  0  0  0  0
    7.4543    1.4452    0.0000 C   0  0  0  0  0  0  0  0  0  0  0  0
    8.0460    2.8234    0.0000 Cl  0  0  0  0  0  0  0  0  0  0  0  0
    8.2214    0.1562    0.0000 N   0  0  0  0  0  0  0  0  0  0  0  0
    7.2326   -0.9718    0.0000 N   0  0  0  0  0  0  0  0  0  0  0  0
    9.7152    0.0192    0.0000 C   0  0  0  0  0  0  0  0  0  0  0  0
   10.5806    1.2443    0.0000 C   0  0  0  0  0  0  0  0  0  0  0  0
   10.3434   -1.3429    0.0000 C   0  0  0  0  0  0  0  0  0  0  0  0
  1  2  1  0  0  0  0
  2  3  1  0  0  0  0
  3  4  1  0  0  0  0
  4  5  2  0  0  0  0
  4  6  1  0  0  0  0
  4  9  1  0  0  0  0
  6  7  1  0  0  0  0
  7  8  1  0  0  0  0
  9 10  1  0  0  0  0
 11 10  1  0  0  0  0
 10 15  2  0  0  0  0
 12 11  2  0  0  0  0
 12 13  1  0  0  0  0
 14 12  1  0  0  0  0
 15 14  1  0  0  0  0
 14 16  1  0  0  0  0
 16 17  1  0  0  0  0
 16 18  1  0  0  0  0
M  END
> <Inchi_key>
XRHGWAGWAHHFLF-UHFFFAOYSA-N

> <Source>
Mulliner

> <ID>
HT3431

> <H_MFHB>
0

> <CAS>


> <Cholestasis>


> <Name>


> <Class>
0


$$$$