

  -INDIGO-08031710012D

 18 20  0  0  0  0  0  0  0  0999 V2000
    2.6031    3.4221    0.0000 C   0  0  0  0  0  0  0  0  0  0  0  0
    3.3433    2.1175    0.0000 C   0  0  0  0  0  0  0  0  0  0  0  0
    2.5836    0.8241    0.0000 C   0  0  0  0  0  0  0  0  0  0  0  0
    3.3238   -0.4805    0.0000 C   0  0  0  0  0  0  0  0  0  0  0  0
    1.8305   -0.3385    0.0000 N   0  0  0  0  0  0  0  0  0  0  0  0
    1.2340   -1.7148    0.0000 C   0  0  0  0  0  0  0  0  0  0  0  0
   -0.2300   -2.0412    0.0000 O   0  0  0  0  0  0  0  0  0  0  0  0
    2.3587   -2.7074    0.0000 N   0  0  0  0  0  0  0  0  0  0  0  0
    3.6502   -1.9446    0.0000 C   0  0  0  0  0  0  0  0  0  0  0  0
    5.0264   -2.5410    0.0000 O   0  0  0  0  0  0  0  0  0  0  0  0
    4.8237   -0.4918    0.0000 C   0  0  0  0  0  0  0  0  0  0  0  0
    5.5638   -1.7965    0.0000 C   0  0  0  0  0  0  0  0  0  0  0  0
    7.0639   -1.8078    0.0000 C   0  0  0  0  0  0  0  0  0  0  0  0
    7.8042   -3.1124    0.0000 F   0  0  0  0  0  0  0  0  0  0  0  0
    7.8237   -0.5144    0.0000 C   0  0  0  0  0  0  0  0  0  0  0  0
    7.0835    0.7902    0.0000 C   0  0  0  0  0  0  0  0  0  0  0  0
    5.5835    0.8015    0.0000 C   0  0  0  0  0  0  0  0  0  0  0  0
    4.8433    2.1062    0.0000 O   0  0  0  0  0  0  0  0  0  0  0  0
  1  2  1  0  0  0  0
  3  2  1  0  0  0  0
  2 18  1  0  0  0  0
  4  3  1  0  0  0  0
  5  4  1  0  0  0  0
  4  9  1  0  0  0  0
 11  4  1  0  0  0  0
  6  5  1  0  0  0  0
  6  7  2  0  0  0  0
  8  6  1  0  0  0  0
  9  8  1  0  0  0  0
  9 10  2  0  0  0  0
 12 11  1  0  0  0  0
 11 17  2  0  0  0  0
 13 12  2  0  0  0  0
 13 14  1  0  0  0  0
 15 13  1  0  0  0  0
 16 15  2  0  0  0  0
 17 16  1  0  0  0  0
 18 17  1  0  0  0  0
M  END
> <Inchi_key>
SEAQTHCVAGBRFY-UHFFFAOYSA-N

> <Source>
Mulliner

> <ID>
HT1906

> <H_MFHB>
0

> <CAS>
68367-52-2

> <Cholestasis>


> <Name>
sorbinil

> <Class>
0


$$$$