
  -INDIGO-08031710012D

 36 40  0  0  0  0  0  0  0  0999 V2000
   -0.2022    0.0572    0.0000 C   0  0  0  0  0  0  0  0  0  0  0  0
   -1.4801    0.8427    0.0000 C   0  0  0  0  0  0  0  0  0  0  0  0
   -2.7851    0.1232    0.0000 C   0  0  0  0  0  0  0  0  0  0  0  0
   -4.0580    0.8981    0.0000 C   0  0  0  0  0  0  0  0  0  0  0  0
   -4.0469    2.4062    0.0000 C   0  0  0  0  0  0  0  0  0  0  0  0
   -5.1254    3.4487    0.0000 C   0  0  0  0  0  0  0  0  0  0  0  0
   -4.4671    4.7965    0.0000 C   0  0  0  0  0  0  0  0  0  0  0  0
   -2.9810    4.5873    0.0000 C   0  0  0  0  0  0  0  0  0  0  0  0
   -1.9382    5.6659    0.0000 O   0  0  0  0  0  0  0  0  0  0  0  0
   -2.7213    3.1101    0.0000 C   0  0  0  0  0  0  0  0  0  0  0  0
   -1.4268    2.3499    0.0000 C   0  0  0  0  0  0  0  0  0  0  0  0
   -0.3400    3.3837    0.0000 C   0  0  0  0  0  0  0  0  0  0  0  0
   -0.7448    1.0382    0.0000 C   0  0  0  0  0  0  0  0  0  0  0  0
   -1.3911   -0.3714    0.0000 C   0  0  0  0  0  0  0  0  0  0  0  0
   -2.8057   -0.8521    0.0000 C   0  0  0  0  0  0  0  0  0  0  0  0
   -3.5302   -2.1655    0.0000 C   0  0  0  0  0  0  0  0  0  0  0  0
   -2.1477   -2.2002    0.0000 C   0  0  0  0  0  0  0  0  0  0  0  0
   -2.9860   -3.4440    0.0000 C   0  0  0  0  0  0  0  0  0  0  0  0
   -4.1988   -0.3110    0.0000 C   0  0  0  0  0  0  0  0  0  0  0  0
   -5.2506   -1.3804    0.0000 O   0  0  0  0  0  0  0  0  0  0  0  0
   -4.7844    1.1248    0.0000 C   0  0  0  0  0  0  0  0  0  0  0  0
   -6.2811    1.2263    0.0000 C   0  0  0  0  0  0  0  0  0  0  0  0
    0.7546    1.0754    0.0000 O   0  0  0  0  0  0  0  0  0  0  0  0
    1.5366   -0.2046    0.0000 C   0  0  0  0  0  0  0  0  0  0  0  0
    0.8190   -1.5218    0.0000 O   0  0  0  0  0  0  0  0  0  0  0  0
    3.0363   -0.1674    0.0000 C   0  0  0  0  0  0  0  0  0  0  0  0
    3.7537    1.1498    0.0000 S   0  0  0  0  0  0  0  0  0  0  0  0
    5.2534    1.1871    0.0000 C   0  0  0  0  0  0  0  0  0  0  0  0
    6.4063    1.6463    0.0000 C   0  0  0  0  0  0  0  0  0  0  0  0
    7.2643    3.2213    0.0000 C   0  0  0  0  0  0  0  0  0  0  0  0
    6.5637    4.6883    0.0000 C   0  0  0  0  0  0  0  0  0  0  0  0
    6.6248    3.3554    0.0000 C   0  0  0  0  0  0  0  0  0  0  0  0
    7.4906    2.2050    0.0000 C   0  0  0  0  0  0  0  0  0  0  0  0
    6.6975    0.6932    0.0000 C   0  0  0  0  0  0  0  0  0  0  0  0
    8.6991    2.7235    0.0000 N   0  0  0  0  0  0  0  0  0  0  0  0
   10.1980    2.7777    0.0000 C   0  0  0  0  0  0  0  0  0  0  0  0
  1  2  1  0  0  0  0
  3  2  1  0  0  0  0
  2 11  1  0  0  0  0
  4  3  1  0  0  0  0
  5  4  1  0  0  0  0
  6  5  1  0  0  0  0
  5 10  1  0  0  0  0
 21  5  1  0  0  0  0
  7  6  1  0  0  0  0
  8  7  1  0  0  0  0
  8  9  2  0  0  0  0
 10  8  1  0  0  0  0
 10 11  1  0  0  0  0
 11 12  1  0  0  0  0
 11 13  1  0  0  0  0
 13 14  1  0  0  0  0
 13 23  1  0  0  0  0
 14 15  1  0  0  0  0
 15 16  1  0  0  0  0
 15 17  1  0  0  0  0
 15 19  1  0  0  0  0
 17 18  2  0  0  0  0
 19 20  1  0  0  0  0
 19 21  1  0  0  0  0
 21 22  1  0  0  0  0
 23 24  1  0  0  0  0
 24 25  2  0  0  0  0
 24 26  1  0  0  0  0
 26 27  1  0  0  0  0
 27 28  1  0  0  0  0
 29 28  1  0  0  0  0
 28 34  1  0  0  0  0
 30 29  1  0  0  0  0
 30 31  1  0  0  0  0
 35 30  1  0  0  0  0
 31 32  1  0  0  0  0
 32 33  1  0  0  0  0
 34 33  1  0  0  0  0
 33 35  1  0  0  0  0
 35 36  1  0  0  0  0
M  END
> <Inchi_key>
STZYTFJPGGDRJD-UHFFFAOYSA-N

> <Source>
Mulliner

> <ID>
HT1815

> <H_MFHB>
0

> <CAS>


> <Cholestasis>


> <Name>
retapamulin

> <Class>
0

$$$$