

  -INDIGO-08031710012D

 15 14  0  0  0  0  0  0  0  0999 V2000
    0.1804   -5.0641    0.0000 C   0  0  0  0  0  0  0  0  0  0  0  0
    0.9303   -3.7651    0.0000 C   0  0  0  0  0  0  0  0  0  0  0  0
    2.4304   -3.7651    0.0000 O   0  0  0  0  0  0  0  0  0  0  0  0
    3.1804   -2.4660    0.0000 P   0  0  0  0  0  0  0  0  0  0  0  0
    3.9304   -1.1670    0.0000 O   0  0  0  0  0  0  0  0  0  0  0  0
    1.8812   -1.7160    0.0000 O   0  0  0  0  0  0  0  0  0  0  0  0
    1.8812   -0.2160    0.0000 C   0  0  0  0  0  0  0  0  0  0  0  0
    0.5823    0.5340    0.0000 C   0  0  0  0  0  0  0  0  0  0  0  0
    4.4794   -3.2160    0.0000 S   0  0  0  0  0  0  0  0  0  0  0  0
    5.7786   -2.4660    0.0000 C   0  0  0  0  0  0  0  0  0  0  0  0
    7.0775   -3.2160    0.0000 C   0  0  0  0  0  0  0  0  0  0  0  0
    8.3765   -2.4660    0.0000 N   0  0  0  0  0  0  0  0  0  0  0  0
    9.1265   -3.7651    0.0000 C   0  0  0  0  0  0  0  0  0  0  0  0
    7.6265   -1.1670    0.0000 C   0  0  0  0  0  0  0  0  0  0  0  0
    9.6756   -1.7160    0.0000 C   0  0  0  0  0  0  0  0  0  0  0  0
  1  2  1  0  0  0  0
  2  3  1  0  0  0  0
  3  4  1  0  0  0  0
  4  5  2  0  0  0  0
  4  6  1  0  0  0  0
  4  9  1  0  0  0  0
  6  7  1  0  0  0  0
  7  8  1  0  0  0  0
  9 10  1  0  0  0  0
 10 11  1  0  0  0  0
 11 12  1  0  0  0  0
 12 13  1  0  0  0  0
 12 14  1  0  0  0  0
 12 15  1  0  0  0  0
M  CHG  1  12   1
M  END
> <Inchi_key>
BJOLKYGKSZKIGU-UHFFFAOYSA-N

> <Source>
Mulliner

> <ID>
HT0740

> <H_MFHB>
0

> <CAS>


> <Cholestasis>


> <Name>
echothiophate

> <Class>
0


$$$$