
  -INDIGO-08031710012D

 17 18  0  0  0  0  0  0  0  0999 V2000
    0.1372    0.1372    0.0000 O   0  0  0  0  0  0  0  0  0  0  0  0
    0.1372   -1.3628    0.0000 C   0  0  0  0  0  0  0  0  0  0  0  0
   -1.1618   -2.1128    0.0000 C   0  0  0  0  0  0  0  0  0  0  0  0
   -1.1618   -3.6128    0.0000 C   0  0  0  0  0  0  0  0  0  0  0  0
   -2.4609   -4.3628    0.0000 Cl  0  0  0  0  0  0  0  0  0  0  0  0
    0.1372   -4.3628    0.0000 C   0  0  0  0  0  0  0  0  0  0  0  0
    1.4363   -3.6128    0.0000 C   0  0  0  0  0  0  0  0  0  0  0  0
    1.4363   -2.1128    0.0000 C   0  0  0  0  0  0  0  0  0  0  0  0
    2.7353   -1.3628    0.0000 O   0  0  0  0  0  0  0  0  0  0  0  0
    4.0342   -2.1128    0.0000 C   0  0  0  0  0  0  0  0  0  0  0  0
    4.0342   -3.6128    0.0000 C   0  0  0  0  0  0  0  0  0  0  0  0
    5.3334   -4.3628    0.0000 C   0  0  0  0  0  0  0  0  0  0  0  0
    6.6323   -3.6128    0.0000 C   0  0  0  0  0  0  0  0  0  0  0  0
    7.9314   -4.3628    0.0000 Cl  0  0  0  0  0  0  0  0  0  0  0  0
    6.6323   -2.1128    0.0000 C   0  0  0  0  0  0  0  0  0  0  0  0
    5.3334   -1.3628    0.0000 C   0  0  0  0  0  0  0  0  0  0  0  0
    5.3334    0.1372    0.0000 Cl  0  0  0  0  0  0  0  0  0  0  0  0
  1  2  1  0  0  0  0
  3  2  2  0  0  0  0
  2  8  1  0  0  0  0
  4  3  1  0  0  0  0
  4  5  1  0  0  0  0
  6  4  2  0  0  0  0
  7  6  1  0  0  0  0
  8  7  2  0  0  0  0
  8  9  1  0  0  0  0
  9 10  1  0  0  0  0
 11 10  2  0  0  0  0
 10 16  1  0  0  0  0
 12 11  1  0  0  0  0
 13 12  2  0  0  0  0
 13 14  1  0  0  0  0
 15 13  1  0  0  0  0
 16 15  2  0  0  0  0
 16 17  1  0  0  0  0
M  END
> <Inchi_key>
XEFQLINVKFYRCS-UHFFFAOYSA-N

> <Source>
Mulliner

> <ID>
HT2115

> <H_MFHB>
0

> <CAS>
3380-34-5

> <Cholestasis>


> <Name>
triclosan

> <Class>
0

$$$$