
  -INDIGO-08031710012D

 30 31  0  0  0  0  0  0  0  0999 V2000
    2.1513    5.1711    0.0000 C   0  0  0  0  0  0  0  0  0  0  0  0
    3.4503    4.4211    0.0000 C   0  0  0  0  0  0  0  0  0  0  0  0
    3.4503    2.9211    0.0000 C   0  0  0  0  0  0  0  0  0  0  0  0
    4.7494    2.1711    0.0000 C   0  0  0  0  0  0  0  0  0  0  0  0
    4.7494    0.6712    0.0000 S   0  0  0  0  0  0  0  0  0  0  0  0
    6.2494    0.6712    0.0000 O   0  0  0  0  0  0  0  0  0  0  0  0
    3.2493    0.6712    0.0000 O   0  0  0  0  0  0  0  0  0  0  0  0
    4.7494   -0.8289    0.0000 N   0  0  0  0  0  0  0  0  0  0  0  0
    6.0484   -1.5789    0.0000 C   0  0  0  0  0  0  0  0  0  0  0  0
    7.3475   -0.8289    0.0000 C   0  0  0  0  0  0  0  0  0  0  0  0
    8.6465   -1.5789    0.0000 C   0  0  0  0  0  0  0  0  0  0  0  0
    9.9455   -0.8289    0.0000 C   0  0  0  0  0  0  0  0  0  0  0  0
   11.2446   -1.5789    0.0000 C   0  0  0  0  0  0  0  0  0  0  0  0
   11.2446   -3.0789    0.0000 C   0  0  0  0  0  0  0  0  0  0  0  0
   12.5436   -3.8289    0.0000 O   0  0  0  0  0  0  0  0  0  0  0  0
   13.8427   -3.0789    0.0000 C   0  0  0  0  0  0  0  0  0  0  0  0
   15.1417   -3.8289    0.0000 C   0  0  0  0  0  0  0  0  0  0  0  0
   16.4407   -3.0789    0.0000 C   0  0  0  0  0  0  0  0  0  0  0  0
   17.7398   -3.8289    0.0000 C   0  0  0  0  0  0  0  0  0  0  0  0
   19.0388   -3.0789    0.0000 C   0  0  0  0  0  0  0  0  0  0  0  0
   20.3379   -3.8289    0.0000 C   0  0  0  0  0  0  0  0  0  0  0  0
   21.6369   -3.0789    0.0000 C   0  0  0  0  0  0  0  0  0  0  0  0
   21.6369   -1.5789    0.0000 N   0  0  0  0  0  0  0  0  0  0  0  0
   20.3379   -0.8289    0.0000 C   0  0  0  0  0  0  0  0  0  0  0  0
   19.0388   -1.5789    0.0000 C   0  0  0  0  0  0  0  0  0  0  0  0
    9.9455   -3.8289    0.0000 C   0  0  0  0  0  0  0  0  0  0  0  0
    8.6465   -3.0789    0.0000 C   0  0  0  0  0  0  0  0  0  0  0  0
    6.0484   -3.0789    0.0000 C   0  0  0  0  0  0  0  0  0  0  0  0
    4.7494   -3.8289    0.0000 O   0  0  0  0  0  0  0  0  0  0  0  0
    7.3475   -3.8289    0.0000 O   0  0  0  0  0  0  0  0  0  0  0  0
  1  2  1  0  0  0  0
  2  3  1  0  0  0  0
  3  4  1  0  0  0  0
  4  5  1  0  0  0  0
  5  6  2  0  0  0  0
  5  7  2  0  0  0  0
  5  8  1  0  0  0  0
  8  9  1  0  0  0  0
  9 10  1  0  0  0  0
  9 28  1  0  0  0  0
 10 11  1  0  0  0  0
 12 11  2  0  0  0  0
 11 27  1  0  0  0  0
 13 12  1  0  0  0  0
 14 13  2  0  0  0  0
 14 15  1  0  0  0  0
 26 14  1  0  0  0  0
 15 16  1  0  0  0  0
 16 17  1  0  0  0  0
 17 18  1  0  0  0  0
 18 19  1  0  0  0  0
 19 20  1  0  0  0  0
 21 20  1  0  0  0  0
 20 25  1  0  0  0  0
 22 21  1  0  0  0  0
 23 22  1  0  0  0  0
 24 23  1  0  0  0  0
 25 24  1  0  0  0  0
 27 26  2  0  0  0  0
 28 29  2  0  0  0  0
 28 30  1  0  0  0  0
M  END
> <Inchi_key>
COKMIXFXJJXBQG-UHFFFAOYSA-N

> <Source>
Mulliner , Kotsampasakou

> <ID>
EK0533;HT2071

> <H_MFHB>
0

> <CAS>
142373-60-2

> <Cholestasis>
0

> <Name>
tirofiban hydrochloride;tirofiban

> <Class>
0

$$$$