

  -INDIGO-08031710012D

 23 24  0  0  0  0  0  0  0  0999 V2000
   15.2069    4.0747    0.0000 C   0  0  0  0  0  0  0  0  0  0  0  0
   13.9079    3.3247    0.0000 O   0  0  0  0  0  0  0  0  0  0  0  0
   12.6087    4.0747    0.0000 C   0  0  0  0  0  0  0  0  0  0  0  0
   11.3097    3.3247    0.0000 C   0  0  0  0  0  0  0  0  0  0  0  0
   10.0107    4.0747    0.0000 C   0  0  0  0  0  0  0  0  0  0  0  0
   10.0107    5.5747    0.0000 C   0  0  0  0  0  0  0  0  0  0  0  0
   11.3097    6.3247    0.0000 C   0  0  0  0  0  0  0  0  0  0  0  0
   12.6087    5.5747    0.0000 C   0  0  0  0  0  0  0  0  0  0  0  0
    8.7118    6.3247    0.0000 C   0  0  0  0  0  0  0  0  0  0  0  0
    8.7118    7.8247    0.0000 O   0  0  0  0  0  0  0  0  0  0  0  0
    7.4125    5.5747    0.0000 C   0  0  0  0  0  0  0  0  0  0  0  0
    6.1135    6.3247    0.0000 C   0  0  0  0  0  0  0  0  0  0  0  0
    6.1135    7.8247    0.0000 O   0  0  0  0  0  0  0  0  0  0  0  0
    4.8146    5.5747    0.0000 C   0  0  0  0  0  0  0  0  0  0  0  0
    3.5156    6.3247    0.0000 C   0  0  0  0  0  0  0  0  0  0  0  0
    2.2166    5.5747    0.0000 C   0  0  0  0  0  0  0  0  0  0  0  0
    2.2166    4.0747    0.0000 C   0  0  0  0  0  0  0  0  0  0  0  0
    3.5156    3.3247    0.0000 C   0  0  0  0  0  0  0  0  0  0  0  0
    4.8146    4.0747    0.0000 C   0  0  0  0  0  0  0  0  0  0  0  0
    0.9174    3.3247    0.0000 C   0  0  0  0  0  0  0  0  0  0  0  0
   -0.3816    2.5747    0.0000 C   0  0  0  0  0  0  0  0  0  0  0  0
    1.6674    2.0256    0.0000 C   0  0  0  0  0  0  0  0  0  0  0  0
    0.1674    4.6237    0.0000 C   0  0  0  0  0  0  0  0  0  0  0  0
  1  2  1  0  0  0  0
  2  3  1  0  0  0  0
  4  3  2  0  0  0  0
  3  8  1  0  0  0  0
  5  4  1  0  0  0  0
  6  5  2  0  0  0  0
  7  6  1  0  0  0  0
  6  9  1  0  0  0  0
  8  7  2  0  0  0  0
  9 10  2  0  0  0  0
  9 11  1  0  0  0  0
 11 12  1  0  0  0  0
 12 13  2  0  0  0  0
 12 14  1  0  0  0  0
 15 14  2  0  0  0  0
 14 19  1  0  0  0  0
 16 15  1  0  0  0  0
 17 16  2  0  0  0  0
 18 17  1  0  0  0  0
 17 20  1  0  0  0  0
 19 18  2  0  0  0  0
 20 21  1  0  0  0  0
 20 22  1  0  0  0  0
 20 23  1  0  0  0  0
M  END
> <Inchi_key>
XNEFYCZVKIDDMS-UHFFFAOYSA-N

> <Source>
Mulliner

> <ID>
HT0206

> <H_MFHB>
0

> <CAS>


> <Cholestasis>


> <Name>
avobenzone

> <Class>
0


$$$$