
  -INDIGO-08031710012D

 19 20  0  0  0  0  0  0  0  0999 V2000
   -1.8383    5.3873    0.0000 O   0  0  0  0  0  0  0  0  0  0  0  0
   -3.1373    4.6373    0.0000 C   0  0  0  0  0  0  0  0  0  0  0  0
   -4.4363    5.3873    0.0000 O   0  0  0  0  0  0  0  0  0  0  0  0
   -3.1373    3.1373    0.0000 C   0  0  0  0  0  0  0  0  0  0  0  0
   -4.4363    2.3873    0.0000 C   0  0  0  0  0  0  0  0  0  0  0  0
   -4.4363    0.8873    0.0000 C   0  0  0  0  0  0  0  0  0  0  0  0
   -3.1373    0.1373    0.0000 C   0  0  0  0  0  0  0  0  0  0  0  0
   -1.8383    0.8873    0.0000 C   0  0  0  0  0  0  0  0  0  0  0  0
   -1.8383    2.3873    0.0000 C   0  0  0  0  0  0  0  0  0  0  0  0
   -0.5391    3.1373    0.0000 O   0  0  0  0  0  0  0  0  0  0  0  0
    0.7597    2.3873    0.0000 C   0  0  0  0  0  0  0  0  0  0  0  0
    0.7597    0.8873    0.0000 O   0  0  0  0  0  0  0  0  0  0  0  0
    2.0589    3.1373    0.0000 C   0  0  0  0  0  0  0  0  0  0  0  0
    2.0589    4.6373    0.0000 C   0  0  0  0  0  0  0  0  0  0  0  0
    3.3579    5.3873    0.0000 C   0  0  0  0  0  0  0  0  0  0  0  0
    4.6569    4.6373    0.0000 C   0  0  0  0  0  0  0  0  0  0  0  0
    4.6569    3.1373    0.0000 C   0  0  0  0  0  0  0  0  0  0  0  0
    3.3579    2.3873    0.0000 C   0  0  0  0  0  0  0  0  0  0  0  0
    3.3579    0.8873    0.0000 O   0  0  0  0  0  0  0  0  0  0  0  0
  1  2  1  0  0  0  0
  2  3  2  0  0  0  0
  2  4  1  0  0  0  0
  5  4  2  0  0  0  0
  4  9  1  0  0  0  0
  6  5  1  0  0  0  0
  7  6  2  0  0  0  0
  8  7  1  0  0  0  0
  9  8  2  0  0  0  0
  9 10  1  0  0  0  0
 10 11  1  0  0  0  0
 11 12  2  0  0  0  0
 11 13  1  0  0  0  0
 14 13  2  0  0  0  0
 13 18  1  0  0  0  0
 15 14  1  0  0  0  0
 16 15  2  0  0  0  0
 17 16  1  0  0  0  0
 18 17  2  0  0  0  0
 18 19  1  0  0  0  0
M  END
> <Inchi_key>
WVYADZUPLLSGPU-UHFFFAOYSA-N

> <Source>
Mulliner

> <ID>
HT1863

> <H_MFHB>
0

> <CAS>


> <Cholestasis>


> <Name>
salsalate

> <Class>
0

$$$$