

  -INDIGO-08031710012D

 10 10  0  0  0  0  0  0  0  0999 V2000
    0.0000   -1.0392    0.0000 C   0  0  0  0  0  0  0  0  0  0  0  0
    1.5000   -1.0392    0.0000 N   0  0  0  0  0  0  0  0  0  0  0  0
    2.2500   -2.3383    0.0000 C   0  0  0  0  0  0  0  0  0  0  0  0
    3.7500   -2.3383    0.0000 C   0  0  0  0  0  0  0  0  0  0  0  0
    4.5000   -1.0392    0.0000 C   0  0  0  0  0  0  0  0  0  0  0  0
    6.0000   -1.0392    0.0000 O   0  0  0  0  0  0  0  0  0  0  0  0
    3.7500    0.2598    0.0000 C   0  0  0  0  0  0  0  0  0  0  0  0
    2.2500    0.2598    0.0000 C   0  0  0  0  0  0  0  0  0  0  0  0
    1.5000    1.5588    0.0000 C   0  0  0  0  0  0  0  0  0  0  0  0
    4.5000    1.5588    0.0000 O   0  0  0  0  0  0  0  0  0  0  0  0
  1  2  1  0  0  0  0
  3  2  1  0  0  0  0
  2  8  1  0  0  0  0
  4  3  2  0  0  0  0
  5  4  1  0  0  0  0
  5  6  2  0  0  0  0
  7  5  1  0  0  0  0
  8  7  2  0  0  0  0
  7 10  1  0  0  0  0
  8  9  1  0  0  0  0
M  END
> <Inchi_key>
TZXKOCQBRNJULO-UHFFFAOYSA-N

> <Source>
Mulliner

> <ID>
HT0600

> <H_MFHB>
0

> <CAS>


> <Cholestasis>


> <Name>
deferiprone

> <Class>
0


$$$$