
  -INDIGO-08031710012D

 26 27  0  0  0  0  0  0  0  0999 V2000
   16.1864   -1.6286    0.0000 C   0  0  0  0  0  0  0  0  0  0  0  0
   14.8873   -2.3786    0.0000 C   0  0  0  0  0  0  0  0  0  0  0  0
   14.8873   -3.8786    0.0000 N   0  0  0  0  0  0  0  0  0  0  0  0
   16.1864   -4.6286    0.0000 C   0  0  0  0  0  0  0  0  0  0  0  0
   16.1864   -6.1286    0.0000 C   0  0  0  0  0  0  0  0  0  0  0  0
   13.5882   -4.6286    0.0000 C   0  0  0  0  0  0  0  0  0  0  0  0
   12.2893   -3.8786    0.0000 C   0  0  0  0  0  0  0  0  0  0  0  0
   10.9902   -3.1286    0.0000 C   0  0  0  0  0  0  0  0  0  0  0  0
    9.6911   -2.3786    0.0000 C   0  0  0  0  0  0  0  0  0  0  0  0
    8.3923   -3.1286    0.0000 O   0  0  0  0  0  0  0  0  0  0  0  0
    7.0932   -2.3786    0.0000 C   0  0  0  0  0  0  0  0  0  0  0  0
    7.0932   -0.8786    0.0000 O   0  0  0  0  0  0  0  0  0  0  0  0
    5.7941   -3.1286    0.0000 C   0  0  0  0  0  0  0  0  0  0  0  0
    6.5441   -4.4277    0.0000 O   0  0  0  0  0  0  0  0  0  0  0  0
    5.0440   -1.8296    0.0000 C   0  0  0  0  0  0  0  0  0  0  0  0
    3.5441   -1.8296    0.0000 C   0  0  0  0  0  0  0  0  0  0  0  0
    2.7940   -0.5305    0.0000 C   0  0  0  0  0  0  0  0  0  0  0  0
    3.5441    0.7685    0.0000 C   0  0  0  0  0  0  0  0  0  0  0  0
    5.0440    0.7685    0.0000 C   0  0  0  0  0  0  0  0  0  0  0  0
    5.7941   -0.5305    0.0000 C   0  0  0  0  0  0  0  0  0  0  0  0
    4.4950   -3.8786    0.0000 C   0  0  0  0  0  0  0  0  0  0  0  0
    3.1961   -3.1286    0.0000 C   0  0  0  0  0  0  0  0  0  0  0  0
    1.8970   -3.8786    0.0000 C   0  0  0  0  0  0  0  0  0  0  0  0
    1.8970   -5.3786    0.0000 C   0  0  0  0  0  0  0  0  0  0  0  0
    3.1961   -6.1286    0.0000 C   0  0  0  0  0  0  0  0  0  0  0  0
    4.4950   -5.3786    0.0000 C   0  0  0  0  0  0  0  0  0  0  0  0
  1  2  1  0  0  0  0
  2  3  1  0  0  0  0
  3  4  1  0  0  0  0
  3  6  1  0  0  0  0
  4  5  1  0  0  0  0
  6  7  1  0  0  0  0
  7  8  3  0  0  0  0
  8  9  1  0  0  0  0
  9 10  1  0  0  0  0
 10 11  1  0  0  0  0
 11 12  2  0  0  0  0
 11 13  1  0  0  0  0
 13 14  1  0  0  0  0
 13 15  1  0  0  0  0
 13 21  1  0  0  0  0
 16 15  1  0  0  0  0
 15 20  1  0  0  0  0
 17 16  1  0  0  0  0
 18 17  1  0  0  0  0
 19 18  1  0  0  0  0
 20 19  1  0  0  0  0
 22 21  2  0  0  0  0
 21 26  1  0  0  0  0
 23 22  1  0  0  0  0
 24 23  2  0  0  0  0
 25 24  1  0  0  0  0
 26 25  2  0  0  0  0
M  END
> <Inchi_key>
XIQVNETUBQGFHX-UHFFFAOYSA-N

> <Source>
Mulliner , Kotsampasakou

> <ID>
EK0396;HT1565

> <H_MFHB>
0

> <CAS>


> <Cholestasis>
0

> <Name>
oxybutynin;oxybutynin chloride

> <Class>
0

$$$$