
  -INDIGO-08031710012D

 25 28  0  0  0  0  0  0  0  0999 V2000
   15.4712    2.4205    0.0000 C   0  0  0  0  0  0  0  0  0  0  0  0
   14.0428    1.9624    0.0000 C   0  0  0  0  0  0  0  0  0  0  0  0
   12.9319    2.9702    0.0000 C   0  0  0  0  0  0  0  0  0  0  0  0
   13.2493    4.4363    0.0000 O   0  0  0  0  0  0  0  0  0  0  0  0
   11.5035    2.5121    0.0000 O   0  0  0  0  0  0  0  0  0  0  0  0
   10.3926    3.5200    0.0000 C   0  0  0  0  0  0  0  0  0  0  0  0
   10.5551    5.0112    0.0000 C   0  0  0  0  0  0  0  0  0  0  0  0
    9.1870    5.6265    0.0000 C   0  0  0  0  0  0  0  0  0  0  0  0
    8.1793    4.5155    0.0000 C   0  0  0  0  0  0  0  0  0  0  0  0
    6.6793    4.5212    0.0000 C   0  0  0  0  0  0  0  0  0  0  0  0
    5.9341    5.8230    0.0000 C   0  0  0  0  0  0  0  0  0  0  0  0
    4.4341    5.8287    0.0000 C   0  0  0  0  0  0  0  0  0  0  0  0
    3.6793    4.5325    0.0000 C   0  0  0  0  0  0  0  0  0  0  0  0
    2.1793    4.5382    0.0000 C   0  0  0  0  0  0  0  0  0  0  0  0
    1.4244    3.2420    0.0000 C   0  0  0  0  0  0  0  0  0  0  0  0
   -0.0756    3.2476    0.0000 O   0  0  0  0  0  0  0  0  0  0  0  0
    2.1695    1.9401    0.0000 C   0  0  0  0  0  0  0  0  0  0  0  0
    3.6695    1.9344    0.0000 C   0  0  0  0  0  0  0  0  0  0  0  0
    4.4244    3.2306    0.0000 C   0  0  0  0  0  0  0  0  0  0  0  0
    5.1695    1.9288    0.0000 C   0  0  0  0  0  0  0  0  0  0  0  0
    5.9244    3.2250    0.0000 C   0  0  0  0  0  0  0  0  0  0  0  0
    6.6693    1.9231    0.0000 C   0  0  0  0  0  0  0  0  0  0  0  0
    8.1693    1.9175    0.0000 C   0  0  0  0  0  0  0  0  0  0  0  0
    8.9244    3.2137    0.0000 C   0  0  0  0  0  0  0  0  0  0  0  0
    9.7801    1.9817    0.0000 C   0  0  0  0  0  0  0  0  0  0  0  0
  1  2  1  0  0  0  0
  2  3  1  0  0  0  0
  3  4  2  0  0  0  0
  3  5  1  0  0  0  0
  5  6  1  0  0  0  0
  7  6  1  0  0  0  0
  6 24  1  0  0  0  0
  8  7  1  0  0  0  0
  9  8  1  0  0  0  0
 10  9  1  0  0  0  0
  9 24  1  0  0  0  0
 11 10  1  0  0  0  0
 10 21  1  0  0  0  0
 12 11  1  0  0  0  0
 13 12  1  0  0  0  0
 14 13  2  0  0  0  0
 13 19  1  0  0  0  0
 15 14  1  0  0  0  0
 15 16  2  0  0  0  0
 17 15  1  0  0  0  0
 18 17  1  0  0  0  0
 19 18  1  0  0  0  0
 19 20  1  0  0  0  0
 21 19  1  0  0  0  0
 22 21  1  0  0  0  0
 23 22  1  0  0  0  0
 24 23  1  0  0  0  0
 24 25  1  0  0  0  0
M  END
> <Inchi_key>
PDMMFKSKQVNJMI-UHFFFAOYSA-N

> <Source>
Mulliner , Kotsampasakou

> <ID>
EK0516;HT2021

> <H_MFHB>
0

> <CAS>
57-85-2

> <Cholestasis>
0

> <Name>
testosterone propionate

> <Class>
0

$$$$