

  -INDIGO-08031710012D

 21 20  0  0  0  0  0  0  0  0999 V2000
    1.9019    7.0981    0.0000 O   0  0  0  0  0  0  0  0  0  0  0  0
    3.2011    6.3481    0.0000 N   0  0  0  0  0  0  0  0  0  0  0  0
    4.5001    7.0981    0.0000 O   0  0  0  0  0  0  0  0  0  0  0  0
    3.2011    4.8481    0.0000 O   0  0  0  0  0  0  0  0  0  0  0  0
    4.5001    4.0981    0.0000 C   0  0  0  0  0  0  0  0  0  0  0  0
    4.5001    2.5982    0.0000 C   0  0  0  0  0  0  0  0  0  0  0  0
    3.0000    2.5982    0.0000 C   0  0  0  0  0  0  0  0  0  0  0  0
    2.2500    1.2990    0.0000 O   0  0  0  0  0  0  0  0  0  0  0  0
    0.7500    1.2990    0.0000 N   0  0  0  0  0  0  0  0  0  0  0  0
    0.0000    0.0000    0.0000 O   0  0  0  0  0  0  0  0  0  0  0  0
    0.0000    2.5982    0.0000 O   0  0  0  0  0  0  0  0  0  0  0  0
    4.5001    1.0981    0.0000 C   0  0  0  0  0  0  0  0  0  0  0  0
    5.7989    0.3481    0.0000 O   0  0  0  0  0  0  0  0  0  0  0  0
    5.7989   -1.1519    0.0000 N   0  0  0  0  0  0  0  0  0  0  0  0
    7.0981   -1.9019    0.0000 O   0  0  0  0  0  0  0  0  0  0  0  0
    4.5001   -1.9019    0.0000 O   0  0  0  0  0  0  0  0  0  0  0  0
    6.0000    2.5982    0.0000 C   0  0  0  0  0  0  0  0  0  0  0  0
    6.7500    3.8970    0.0000 O   0  0  0  0  0  0  0  0  0  0  0  0
    8.2500    3.8970    0.0000 N   0  0  0  0  0  0  0  0  0  0  0  0
    9.0000    2.5982    0.0000 O   0  0  0  0  0  0  0  0  0  0  0  0
    9.0000    5.1962    0.0000 O   0  0  0  0  0  0  0  0  0  0  0  0
  1  2  1  0  0  0  0
  2  3  2  0  0  0  0
  2  4  1  0  0  0  0
  4  5  1  0  0  0  0
  5  6  1  0  0  0  0
  6  7  1  0  0  0  0
  6 12  1  0  0  0  0
  6 17  1  0  0  0  0
  7  8  1  0  0  0  0
  8  9  1  0  0  0  0
  9 10  2  0  0  0  0
  9 11  1  0  0  0  0
 12 13  1  0  0  0  0
 13 14  1  0  0  0  0
 14 15  2  0  0  0  0
 14 16  1  0  0  0  0
 17 18  1  0  0  0  0
 18 19  1  0  0  0  0
 19 20  2  0  0  0  0
 19 21  1  0  0  0  0
M  CHG  8   1  -1   2   1   9   1  11  -1  14   1  16  -1  19   1  21  -1
M  END
> <Inchi_key>
TZRXHJWUDPFEEY-UHFFFAOYSA-N

> <Source>
Mulliner

> <ID>
HT3443

> <H_MFHB>
0

> <CAS>


> <Cholestasis>


> <Name>


> <Class>
0


$$$$