
  -INDIGO-08031710012D

  7  6  0  0  0  0  0  0  0  0999 V2000
    0.9510   -2.2633    0.0000 O   0  0  0  0  0  0  0  0  0  0  0  0
    0.2010   -0.9643    0.0000 S   0  0  0  0  0  0  0  0  0  0  0  0
   -0.5490    0.3348    0.0000 O   0  0  0  0  0  0  0  0  0  0  0  0
   -1.0981   -1.7143    0.0000 O   0  0  0  0  0  0  0  0  0  0  0  0
    1.5000   -0.2143    0.0000 C   0  0  0  0  0  0  0  0  0  0  0  0
    2.7990   -0.9643    0.0000 C   0  0  0  0  0  0  0  0  0  0  0  0
    4.0981   -0.2143    0.0000 S   0  0  0  0  0  0  0  0  0  0  0  0
  1  2  2  0  0  0  0
  2  3  2  0  0  0  0
  2  4  1  0  0  0  0
  2  5  1  0  0  0  0
  5  6  1  0  0  0  0
  6  7  1  0  0  0  0
M  END
> <Inchi_key>
ZNEWHQLOPFWXOF-UHFFFAOYSA-N

> <Source>
Mulliner , Kotsampasakou

> <ID>
EK0324;HT1319

> <H_MFHB>
0

> <CAS>


> <Cholestasis>
0

> <Name>
mesna

> <Class>
0

$$$$