

  -INDIGO-08031710012D

 14 15  0  0  0  0  0  0  0  0999 V2000
    1.3114    3.1018    0.0000 C   0  0  0  0  0  0  0  0  0  0  0  0
    2.0614    1.8027    0.0000 N   0  0  0  0  0  0  0  0  0  0  0  0
    1.3114    0.5037    0.0000 C   0  0  0  0  0  0  0  0  0  0  0  0
   -0.1886    0.5037    0.0000 O   0  0  0  0  0  0  0  0  0  0  0  0
    2.0614   -0.7954    0.0000 N   0  0  0  0  0  0  0  0  0  0  0  0
    1.3114   -2.0944    0.0000 C   0  0  0  0  0  0  0  0  0  0  0  0
    3.5615   -0.7954    0.0000 C   0  0  0  0  0  0  0  0  0  0  0  0
    4.5652   -1.9101    0.0000 N   0  0  0  0  0  0  0  0  0  0  0  0
    5.9354   -1.3000    0.0000 C   0  0  0  0  0  0  0  0  0  0  0  0
    5.7786    0.1918    0.0000 N   0  0  0  0  0  0  0  0  0  0  0  0
    6.8934    1.1955    0.0000 C   0  0  0  0  0  0  0  0  0  0  0  0
    4.3114    0.5037    0.0000 C   0  0  0  0  0  0  0  0  0  0  0  0
    3.5615    1.8027    0.0000 C   0  0  0  0  0  0  0  0  0  0  0  0
    4.3114    3.1018    0.0000 O   0  0  0  0  0  0  0  0  0  0  0  0
  1  2  1  0  0  0  0
  3  2  1  0  0  0  0
  2 13  1  0  0  0  0
  3  4  2  0  0  0  0
  5  3  1  0  0  0  0
  5  6  1  0  0  0  0
  7  5  1  0  0  0  0
  8  7  1  0  0  0  0
  7 12  2  0  0  0  0
  9  8  2  0  0  0  0
 10  9  1  0  0  0  0
 10 11  1  0  0  0  0
 12 10  1  0  0  0  0
 13 12  1  0  0  0  0
 13 14  2  0  0  0  0
M  END
> <Inchi_key>
RYYVLZVUVIJVGH-UHFFFAOYSA-N

> <Source>
Mulliner

> <ID>
HT0348

> <H_MFHB>
0

> <CAS>
8/2/1958

> <Cholestasis>


> <Name>
caffeine

> <Class>
0


$$$$