

  -INDIGO-08031710012D

 14 14  0  0  0  0  0  0  0  0999 V2000
    3.5519   -3.5519    0.0000 N   0  0  0  0  0  0  0  0  0  0  0  0
    3.5519   -2.0519    0.0000 C   0  0  0  0  0  0  0  0  0  0  0  0
    2.2527   -1.3019    0.0000 C   0  0  0  0  0  0  0  0  0  0  0  0
    0.9539   -2.0519    0.0000 N   0  0  0  0  0  0  0  0  0  0  0  0
    0.9539   -3.5519    0.0000 C   0  0  0  0  0  0  0  0  0  0  0  0
   -0.3453   -4.3019    0.0000 C   0  0  0  0  0  0  0  0  0  0  0  0
   -1.6443   -3.5519    0.0000 C   0  0  0  0  0  0  0  0  0  0  0  0
   -2.9433   -4.3019    0.0000 O   0  0  0  0  0  0  0  0  0  0  0  0
   -1.6443   -2.0519    0.0000 C   0  0  0  0  0  0  0  0  0  0  0  0
   -0.3453   -1.3019    0.0000 C   0  0  0  0  0  0  0  0  0  0  0  0
   -2.9433   -1.3019    0.0000 O   0  0  0  0  0  0  0  0  0  0  0  0
    4.8509   -1.3019    0.0000 C   0  0  0  0  0  0  0  0  0  0  0  0
    4.8509    0.1981    0.0000 O   0  0  0  0  0  0  0  0  0  0  0  0
    6.1499   -2.0519    0.0000 O   0  0  0  0  0  0  0  0  0  0  0  0
  1  2  1  0  0  0  0
  2  3  1  0  0  0  0
  2 12  1  0  0  0  0
  3  4  1  0  0  0  0
  5  4  1  0  0  0  0
  4 10  1  0  0  0  0
  6  5  2  0  0  0  0
  7  6  1  0  0  0  0
  7  8  2  0  0  0  0
  9  7  1  0  0  0  0
 10  9  2  0  0  0  0
  9 11  1  0  0  0  0
 12 13  2  0  0  0  0
 12 14  1  0  0  0  0
M  END
> <Inchi_key>
WZNJWVWKTVETCG-UHFFFAOYSA-N

> <Source>
Mulliner

> <ID>
HT1404

> <H_MFHB>
0

> <CAS>


> <Cholestasis>


> <Name>
mimosine

> <Class>
0


$$$$