
  -INDIGO-08031710012D

 31 33  0  0  0  0  0  0  0  0999 V2000
    6.2022    3.5810    0.0000 C   0  0  0  0  0  0  0  0  0  0  0  0
    5.4523    2.2818    0.0000 C   0  0  0  0  0  0  0  0  0  0  0  0
    3.9521    2.2818    0.0000 C   0  0  0  0  0  0  0  0  0  0  0  0
    3.2023    0.9828    0.0000 N   0  0  0  0  0  0  0  0  0  0  0  0
    1.7021    0.9828    0.0000 C   0  0  0  0  0  0  0  0  0  0  0  0
    0.9522    2.2818    0.0000 C   0  0  0  0  0  0  0  0  0  0  0  0
    1.7021    3.5810    0.0000 C   0  0  0  0  0  0  0  0  0  0  0  0
    0.9522    4.8799    0.0000 C   0  0  0  0  0  0  0  0  0  0  0  0
   -0.5477    4.8799    0.0000 C   0  0  0  0  0  0  0  0  0  0  0  0
   -1.2978    6.1789    0.0000 C   0  0  0  0  0  0  0  0  0  0  0  0
   -0.5477    7.4780    0.0000 C   0  0  0  0  0  0  0  0  0  0  0  0
    0.9522    7.4780    0.0000 C   0  0  0  0  0  0  0  0  0  0  0  0
    1.7021    6.1789    0.0000 C   0  0  0  0  0  0  0  0  0  0  0  0
   -0.5477    2.2818    0.0000 C   0  0  0  0  0  0  0  0  0  0  0  0
   -1.2978    3.5810    0.0000 O   0  0  0  0  0  0  0  0  0  0  0  0
   -1.2978    0.9828    0.0000 N   0  0  0  0  0  0  0  0  0  0  0  0
   -2.7978    0.9828    0.0000 C   0  0  0  0  0  0  0  0  0  0  0  0
   -3.5479   -0.3164    0.0000 C   0  0  0  0  0  0  0  0  0  0  0  0
   -5.0478   -0.3164    0.0000 O   0  0  0  0  0  0  0  0  0  0  0  0
   -2.7978   -1.6153    0.0000 O   0  0  0  0  0  0  0  0  0  0  0  0
    3.9521   -0.3164    0.0000 C   0  0  0  0  0  0  0  0  0  0  0  0
    5.4523   -0.3164    0.0000 C   0  0  0  0  0  0  0  0  0  0  0  0
    6.2022    0.9828    0.0000 C   0  0  0  0  0  0  0  0  0  0  0  0
    7.5014    1.7328    0.0000 C   0  0  0  0  0  0  0  0  0  0  0  0
    7.5014    0.2328    0.0000 C   0  0  0  0  0  0  0  0  0  0  0  0
    7.5014   -1.2673    0.0000 C   0  0  0  0  0  0  0  0  0  0  0  0
    8.8003   -2.0172    0.0000 C   0  0  0  0  0  0  0  0  0  0  0  0
   10.0992   -1.2673    0.0000 C   0  0  0  0  0  0  0  0  0  0  0  0
   10.0992    0.2328    0.0000 C   0  0  0  0  0  0  0  0  0  0  0  0
   11.3984    0.9828    0.0000 O   0  0  0  0  0  0  0  0  0  0  0  0
    8.8003    0.9828    0.0000 C   0  0  0  0  0  0  0  0  0  0  0  0
  1  2  1  0  0  0  0
  3  2  1  0  0  0  0
  2 23  1  0  0  0  0
  4  3  1  0  0  0  0
  4  5  1  0  0  0  0
 21  4  1  0  0  0  0
  5  6  1  0  0  0  0
  6  7  1  0  0  0  0
  6 14  1  0  0  0  0
  7  8  1  0  0  0  0
  9  8  2  0  0  0  0
  8 13  1  0  0  0  0
 10  9  1  0  0  0  0
 11 10  2  0  0  0  0
 12 11  1  0  0  0  0
 13 12  2  0  0  0  0
 14 15  2  0  0  0  0
 14 16  1  0  0  0  0
 16 17  1  0  0  0  0
 17 18  1  0  0  0  0
 18 19  2  0  0  0  0
 18 20  1  0  0  0  0
 22 21  1  0  0  0  0
 23 22  1  0  0  0  0
 23 24  1  0  0  0  0
 23 25  1  0  0  0  0
 26 25  2  0  0  0  0
 25 31  1  0  0  0  0
 27 26  1  0  0  0  0
 28 27  2  0  0  0  0
 29 28  1  0  0  0  0
 29 30  1  0  0  0  0
 31 29  2  0  0  0  0
M  END
> <Inchi_key>
UPNUIXSCZBYVBB-UHFFFAOYSA-N

> <Source>
Mulliner

> <ID>
HT0121

> <H_MFHB>
0

> <CAS>


> <Cholestasis>


> <Name>
alvimopan

> <Class>
0

$$$$