

  -INDIGO-08031710012D

 21 22  0  0  0  0  0  0  0  0999 V2000
   -0.8800    7.8084    0.0000 C   0  0  0  0  0  0  0  0  0  0  0  0
   -0.8586    6.3085    0.0000 C   0  0  0  0  0  0  0  0  0  0  0  0
   -2.1469    5.5402    0.0000 O   0  0  0  0  0  0  0  0  0  0  0  0
    0.4510    5.5771    0.0000 O   0  0  0  0  0  0  0  0  0  0  0  0
    0.4724    4.0773    0.0000 C   0  0  0  0  0  0  0  0  0  0  0  0
   -0.8159    3.3088    0.0000 C   0  0  0  0  0  0  0  0  0  0  0  0
   -0.7947    1.8090    0.0000 C   0  0  0  0  0  0  0  0  0  0  0  0
    0.5151    1.0776    0.0000 C   0  0  0  0  0  0  0  0  0  0  0  0
    1.8032    1.8460    0.0000 C   0  0  0  0  0  0  0  0  0  0  0  0
    1.7819    3.3458    0.0000 C   0  0  0  0  0  0  0  0  0  0  0  0
    3.0700    4.1142    0.0000 C   0  0  0  0  0  0  0  0  0  0  0  0
    3.0486    5.6141    0.0000 O   0  0  0  0  0  0  0  0  0  0  0  0
    4.3798    3.3828    0.0000 N   0  0  0  0  0  0  0  0  0  0  0  0
    5.6679    4.1512    0.0000 C   0  0  0  0  0  0  0  0  0  0  0  0
    5.8036    5.6451    0.0000 N   0  0  0  0  0  0  0  0  0  0  0  0
    7.2662    5.9778    0.0000 C   0  0  0  0  0  0  0  0  0  0  0  0
    8.0344    4.6895    0.0000 C   0  0  0  0  0  0  0  0  0  0  0  0
    7.0469    3.5607    0.0000 S   0  0  0  0  0  0  0  0  0  0  0  0
    9.5284    4.5540    0.0000 N   0  0  0  0  0  0  0  0  0  0  0  0
   10.1579    3.1925    0.0000 O   0  0  0  0  0  0  0  0  0  0  0  0
   10.3927    5.7799    0.0000 O   0  0  0  0  0  0  0  0  0  0  0  0
  1  2  1  0  0  0  0
  2  3  2  0  0  0  0
  2  4  1  0  0  0  0
  4  5  1  0  0  0  0
  6  5  2  0  0  0  0
  5 10  1  0  0  0  0
  7  6  1  0  0  0  0
  8  7  2  0  0  0  0
  9  8  1  0  0  0  0
 10  9  2  0  0  0  0
 10 11  1  0  0  0  0
 11 12  2  0  0  0  0
 11 13  1  0  0  0  0
 13 14  1  0  0  0  0
 15 14  2  0  0  0  0
 14 18  1  0  0  0  0
 16 15  1  0  0  0  0
 17 16  2  0  0  0  0
 18 17  1  0  0  0  0
 17 19  1  0  0  0  0
 19 20  2  0  0  0  0
 19 21  1  0  0  0  0
M  CHG  2  19   1  21  -1
M  END
> <Inchi_key>
YQNQNVDNTFHQSW-UHFFFAOYSA-N

> <Source>
Mulliner , Kotsampasakou

> <ID>
EK0383;HT1500

> <H_MFHB>
0

> <CAS>
55981-09-4

> <Cholestasis>
0

> <Name>
nitazoxanide

> <Class>
0


$$$$