

  -INDIGO-08031710012D

 20 22  0  0  0  0  0  0  0  0999 V2000
    2.3251   -2.3250    0.0000 O   0  0  0  0  0  0  0  0  0  0  0  0
    2.3251   -0.8250    0.0000 C   0  0  0  0  0  0  0  0  0  0  0  0
    2.3251    0.6750    0.0000 C   0  0  0  0  0  0  0  0  0  0  0  0
    1.0261    1.4250    0.0000 C   0  0  0  0  0  0  0  0  0  0  0  0
    1.0261    2.9250    0.0000 C   0  0  0  0  0  0  0  0  0  0  0  0
    2.3251    3.6750    0.0000 C   0  0  0  0  0  0  0  0  0  0  0  0
    3.6239    2.9250    0.0000 C   0  0  0  0  0  0  0  0  0  0  0  0
    3.6239    1.4250    0.0000 N   0  0  0  0  0  0  0  0  0  0  0  0
    0.8250   -0.8250    0.0000 C   0  0  0  0  0  0  0  0  0  0  0  0
    0.0750   -2.1240    0.0000 C   0  0  0  0  0  0  0  0  0  0  0  0
   -1.4250   -2.1240    0.0000 C   0  0  0  0  0  0  0  0  0  0  0  0
   -2.1750   -0.8250    0.0000 C   0  0  0  0  0  0  0  0  0  0  0  0
   -1.4250    0.4740    0.0000 C   0  0  0  0  0  0  0  0  0  0  0  0
    0.0750    0.4740    0.0000 C   0  0  0  0  0  0  0  0  0  0  0  0
    3.8250   -0.8250    0.0000 C   0  0  0  0  0  0  0  0  0  0  0  0
    4.5750    0.4740    0.0000 C   0  0  0  0  0  0  0  0  0  0  0  0
    6.0750    0.4740    0.0000 C   0  0  0  0  0  0  0  0  0  0  0  0
    6.8250   -0.8250    0.0000 C   0  0  0  0  0  0  0  0  0  0  0  0
    6.0750   -2.1240    0.0000 C   0  0  0  0  0  0  0  0  0  0  0  0
    4.5750   -2.1240    0.0000 C   0  0  0  0  0  0  0  0  0  0  0  0
  1  2  1  0  0  0  0
  2  3  1  0  0  0  0
  2  9  1  0  0  0  0
  2 15  1  0  0  0  0
  4  3  1  0  0  0  0
  3  8  1  0  0  0  0
  5  4  1  0  0  0  0
  6  5  1  0  0  0  0
  7  6  1  0  0  0  0
  8  7  1  0  0  0  0
 10  9  2  0  0  0  0
  9 14  1  0  0  0  0
 11 10  1  0  0  0  0
 12 11  2  0  0  0  0
 13 12  1  0  0  0  0
 14 13  2  0  0  0  0
 16 15  2  0  0  0  0
 15 20  1  0  0  0  0
 17 16  1  0  0  0  0
 18 17  2  0  0  0  0
 19 18  1  0  0  0  0
 20 19  2  0  0  0  0
M  END
> <Inchi_key>
XSWHNYGMWWVAIE-UHFFFAOYSA-N

> <Source>
Mulliner

> <ID>
HT3182

> <H_MFHB>
0

> <CAS>


> <Cholestasis>


> <Name>


> <Class>
0


$$$$