

  -INDIGO-08031710012D

 21 22  0  0  0  0  0  0  0  0999 V2000
    1.3808   -2.3914    0.0000 C   0  0  0  0  0  0  0  0  0  0  0  0
    2.1308   -1.0923    0.0000 C   0  0  0  0  0  0  0  0  0  0  0  0
    2.8808    0.2067    0.0000 C   0  0  0  0  0  0  0  0  0  0  0  0
    3.4297   -1.8423    0.0000 O   0  0  0  0  0  0  0  0  0  0  0  0
    4.7287   -1.0923    0.0000 C   0  0  0  0  0  0  0  0  0  0  0  0
    6.0278   -1.8423    0.0000 C   0  0  0  0  0  0  0  0  0  0  0  0
    7.3268   -1.0923    0.0000 C   0  0  0  0  0  0  0  0  0  0  0  0
    7.3268    0.4077    0.0000 C   0  0  0  0  0  0  0  0  0  0  0  0
    8.6259    1.1577    0.0000 Cl  0  0  0  0  0  0  0  0  0  0  0  0
    6.0278    1.1577    0.0000 C   0  0  0  0  0  0  0  0  0  0  0  0
    4.7287    0.4077    0.0000 C   0  0  0  0  0  0  0  0  0  0  0  0
    0.8315   -0.3423    0.0000 C   0  0  0  0  0  0  0  0  0  0  0  0
    0.8315    1.1577    0.0000 O   0  0  0  0  0  0  0  0  0  0  0  0
   -0.4674   -1.0923    0.0000 N   0  0  0  0  0  0  0  0  0  0  0  0
   -0.6241   -2.5841    0.0000 C   0  0  0  0  0  0  0  0  0  0  0  0
   -2.0913   -2.8960    0.0000 S   0  0  0  0  0  0  0  0  0  0  0  0
   -2.8415   -1.5970    0.0000 C   0  0  0  0  0  0  0  0  0  0  0  0
   -1.8377   -0.4822    0.0000 C   0  0  0  0  0  0  0  0  0  0  0  0
   -2.1496    0.9850    0.0000 C   0  0  0  0  0  0  0  0  0  0  0  0
   -1.0349    1.9887    0.0000 O   0  0  0  0  0  0  0  0  0  0  0  0
   -3.5762    1.4485    0.0000 O   0  0  0  0  0  0  0  0  0  0  0  0
  1  2  1  0  0  0  0
  2  3  1  0  0  0  0
  2  4  1  0  0  0  0
  2 12  1  0  0  0  0
  4  5  1  0  0  0  0
  6  5  2  0  0  0  0
  5 11  1  0  0  0  0
  7  6  1  0  0  0  0
  8  7  2  0  0  0  0
  8  9  1  0  0  0  0
 10  8  1  0  0  0  0
 11 10  2  0  0  0  0
 12 13  2  0  0  0  0
 12 14  1  0  0  0  0
 15 14  1  0  0  0  0
 14 18  1  0  0  0  0
 16 15  1  0  0  0  0
 17 16  1  0  0  0  0
 18 17  1  0  0  0  0
 18 19  1  0  0  0  0
 19 20  2  0  0  0  0
 19 21  1  0  0  0  0
M  END
> <Inchi_key>
QSNOWCXXECLALL-UHFFFAOYSA-N

> <Source>
Mulliner

> <ID>
HT2063

> <H_MFHB>
0

> <CAS>
64179-54-0

> <Cholestasis>


> <Name>
timofibrate

> <Class>
0


$$$$