
  -INDIGO-08031710012D

 12 12  0  0  0  0  0  0  0  0999 V2000
    7.1304   -3.2856    0.0000 C   0  0  0  0  0  0  0  0  0  0  0  0
    5.8313   -4.0356    0.0000 C   0  0  0  0  0  0  0  0  0  0  0  0
    4.5323   -3.2856    0.0000 N   0  0  0  0  0  0  0  0  0  0  0  0
    5.2823   -1.9865    0.0000 C   0  0  0  0  0  0  0  0  0  0  0  0
    3.7823   -4.5846    0.0000 C   0  0  0  0  0  0  0  0  0  0  0  0
    3.2333   -2.5356    0.0000 C   0  0  0  0  0  0  0  0  0  0  0  0
    3.2333   -1.0356    0.0000 C   0  0  0  0  0  0  0  0  0  0  0  0
    1.9342   -0.2856    0.0000 C   0  0  0  0  0  0  0  0  0  0  0  0
    0.6352   -1.0356    0.0000 C   0  0  0  0  0  0  0  0  0  0  0  0
    0.6352   -2.5356    0.0000 C   0  0  0  0  0  0  0  0  0  0  0  0
   -0.6639   -3.2856    0.0000 O   0  0  0  0  0  0  0  0  0  0  0  0
    1.9342   -3.2856    0.0000 C   0  0  0  0  0  0  0  0  0  0  0  0
  1  2  1  0  0  0  0
  2  3  1  0  0  0  0
  3  4  1  0  0  0  0
  3  5  1  0  0  0  0
  3  6  1  0  0  0  0
  7  6  2  0  0  0  0
  6 12  1  0  0  0  0
  8  7  1  0  0  0  0
  9  8  2  0  0  0  0
 10  9  1  0  0  0  0
 10 11  1  0  0  0  0
 12 10  2  0  0  0  0
M  CHG  1   3   1
M  END
> <Inchi_key>
VWLHWLSRQJQWRG-UHFFFAOYSA-O

> <Source>
Mulliner

> <ID>
HT0745

> <H_MFHB>
0

> <CAS>


> <Cholestasis>


> <Name>
edrophonium

> <Class>
0

$$$$