

  -INDIGO-08031710012D

 12 13  0  0  0  0  0  0  0  0999 V2000
    3.2669    3.9531    0.0000 O   0  0  0  0  0  0  0  0  0  0  0  0
    2.9176    2.4943    0.0000 C   0  0  0  0  0  0  0  0  0  0  0  0
    1.5321    1.9195    0.0000 N   0  0  0  0  0  0  0  0  0  0  0  0
    1.6507    0.4242    0.0000 S   0  0  0  0  0  0  0  0  0  0  0  0
    1.1262   -0.9811    0.0000 O   0  0  0  0  0  0  0  0  0  0  0  0
    0.1637    0.2275    0.0000 O   0  0  0  0  0  0  0  0  0  0  0  0
    3.1095    0.0749    0.0000 C   0  0  0  0  0  0  0  0  0  0  0  0
    3.8260   -1.2429    0.0000 C   0  0  0  0  0  0  0  0  0  0  0  0
    5.3255   -1.2813    0.0000 C   0  0  0  0  0  0  0  0  0  0  0  0
    6.1085   -0.0019    0.0000 C   0  0  0  0  0  0  0  0  0  0  0  0
    5.3920    1.3159    0.0000 C   0  0  0  0  0  0  0  0  0  0  0  0
    3.8925    1.3543    0.0000 C   0  0  0  0  0  0  0  0  0  0  0  0
  1  2  2  0  0  0  0
  3  2  1  0  0  0  0
  2 12  1  0  0  0  0
  4  3  2  0  0  0  0
  4  5  2  0  0  0  0
  4  6  1  0  0  0  0
  7  4  1  0  0  0  0
  8  7  2  0  0  0  0
  7 12  1  0  0  0  0
  9  8  1  0  0  0  0
 10  9  2  0  0  0  0
 11 10  1  0  0  0  0
 12 11  2  0  0  0  0
M  END
> <Inchi_key>
BOVDVPFUOLVPBG-UHFFFAOYSA-N

> <Source>
Mulliner

> <ID>
HT2792

> <H_MFHB>
0

> <CAS>


> <Cholestasis>


> <Name>


> <Class>
0


$$$$