
  -INDIGO-08031710012D

 20 19  0  0  0  0  0  0  0  0999 V2000
   -1.8750   -3.2477    0.0000 O   0  0  0  0  0  0  0  0  0  0  0  0
   -1.1250   -4.5465    0.0000 N   0  0  0  0  0  0  0  0  0  0  0  0
   -1.8750   -5.8457    0.0000 O   0  0  0  0  0  0  0  0  0  0  0  0
    0.3749   -4.5465    0.0000 O   0  0  0  0  0  0  0  0  0  0  0  0
    1.1251   -3.2477    0.0000 C   0  0  0  0  0  0  0  0  0  0  0  0
    2.6250   -3.2477    0.0000 C   0  0  0  0  0  0  0  0  0  0  0  0
    3.3750   -1.9487    0.0000 O   0  0  0  0  0  0  0  0  0  0  0  0
    2.6250   -0.6495    0.0000 N   0  0  0  0  0  0  0  0  0  0  0  0
    3.3750    0.6495    0.0000 O   0  0  0  0  0  0  0  0  0  0  0  0
    1.1251   -0.6495    0.0000 O   0  0  0  0  0  0  0  0  0  0  0  0
    3.3750   -4.5465    0.0000 C   0  0  0  0  0  0  0  0  0  0  0  0
    4.8749   -4.5465    0.0000 C   0  0  0  0  0  0  0  0  0  0  0  0
    5.6251   -3.2477    0.0000 O   0  0  0  0  0  0  0  0  0  0  0  0
    7.1250   -3.2477    0.0000 N   0  0  0  0  0  0  0  0  0  0  0  0
    7.8750   -4.5465    0.0000 O   0  0  0  0  0  0  0  0  0  0  0  0
    7.8750   -1.9487    0.0000 O   0  0  0  0  0  0  0  0  0  0  0  0
    2.6250   -5.8457    0.0000 O   0  0  0  0  0  0  0  0  0  0  0  0
    3.3750   -7.1447    0.0000 N   0  0  0  0  0  0  0  0  0  0  0  0
    2.6250   -8.4437    0.0000 O   0  0  0  0  0  0  0  0  0  0  0  0
    4.8749   -7.1447    0.0000 O   0  0  0  0  0  0  0  0  0  0  0  0
  1  2  1  0  0  0  0
  2  3  2  0  0  0  0
  2  4  1  0  0  0  0
  4  5  1  0  0  0  0
  5  6  1  0  0  0  0
  6  7  1  0  0  0  0
  6 11  1  0  0  0  0
  7  8  1  0  0  0  0
  8  9  2  0  0  0  0
  8 10  1  0  0  0  0
 11 12  1  0  0  0  0
 11 17  1  0  0  0  0
 12 13  1  0  0  0  0
 13 14  1  0  0  0  0
 14 15  2  0  0  0  0
 14 16  1  0  0  0  0
 17 18  1  0  0  0  0
 18 19  2  0  0  0  0
 18 20  1  0  0  0  0
M  CHG  8   1  -1   2   1   8   1  10  -1  14   1  16  -1  18   1  20  -1
M  END
> <Inchi_key>
SNFOERUNNSHUGP-UHFFFAOYSA-N

> <Source>
Mulliner

> <ID>
HT0783

> <H_MFHB>
0

> <CAS>


> <Cholestasis>


> <Name>
erythrityl tetranitrate

> <Class>
0

$$$$