
  -INDIGO-08031710012D

 13 14  0  0  0  0  0  0  0  0999 V2000
    9.3462    1.2055    0.0000 N   0  0  0  0  0  0  0  0  0  0  0  0
    8.2208    2.1972    0.0000 C   0  0  0  0  0  0  0  0  0  0  0  0
    6.7993    1.7183    0.0000 C   0  0  0  0  0  0  0  0  0  0  0  0
    5.6738    2.7099    0.0000 C   0  0  0  0  0  0  0  0  0  0  0  0
    5.8145    4.2033    0.0000 C   0  0  0  0  0  0  0  0  0  0  0  0
    4.4377    4.7986    0.0000 N   0  0  0  0  0  0  0  0  0  0  0  0
    3.4460    3.6731    0.0000 C   0  0  0  0  0  0  0  0  0  0  0  0
    1.9461    3.6569    0.0000 C   0  0  0  0  0  0  0  0  0  0  0  0
    1.2102    2.3499    0.0000 C   0  0  0  0  0  0  0  0  0  0  0  0
    1.9741    1.0590    0.0000 C   0  0  0  0  0  0  0  0  0  0  0  0
    1.2383   -0.2481    0.0000 O   0  0  0  0  0  0  0  0  0  0  0  0
    3.4742    1.0752    0.0000 C   0  0  0  0  0  0  0  0  0  0  0  0
    4.2100    2.3822    0.0000 C   0  0  0  0  0  0  0  0  0  0  0  0
  1  2  1  0  0  0  0
  2  3  1  0  0  0  0
  3  4  1  0  0  0  0
  5  4  2  0  0  0  0
  4 13  1  0  0  0  0
  6  5  1  0  0  0  0
  7  6  1  0  0  0  0
  8  7  1  0  0  0  0
  7 13  2  0  0  0  0
  9  8  2  0  0  0  0
 10  9  1  0  0  0  0
 10 11  1  0  0  0  0
 12 10  2  0  0  0  0
 13 12  1  0  0  0  0
M  END
> <Inchi_key>
QZAYGJVTTNCVMB-UHFFFAOYSA-N

> <Source>
Mulliner

> <ID>
HT2755

> <H_MFHB>
0

> <CAS>
16031-83-7

> <Cholestasis>


> <Name>


> <Class>
0

$$$$