
  -INDIGO-08031710012D

 13 13  0  0  0  0  0  0  0  0999 V2000
    9.9424    2.6641    0.0000 O   0  0  0  0  0  0  0  0  0  0  0  0
    8.6432    1.9141    0.0000 C   0  0  0  0  0  0  0  0  0  0  0  0
    8.6432    0.4141    0.0000 O   0  0  0  0  0  0  0  0  0  0  0  0
    7.3444    2.6641    0.0000 C   0  0  0  0  0  0  0  0  0  0  0  0
    6.0453    1.9141    0.0000 N   0  0  0  0  0  0  0  0  0  0  0  0
    4.7462    2.6641    0.0000 C   0  0  0  0  0  0  0  0  0  0  0  0
    4.7462    4.1641    0.0000 O   0  0  0  0  0  0  0  0  0  0  0  0
    3.4471    1.9141    0.0000 C   0  0  0  0  0  0  0  0  0  0  0  0
    3.4471    0.4141    0.0000 C   0  0  0  0  0  0  0  0  0  0  0  0
    2.1483   -0.3359    0.0000 C   0  0  0  0  0  0  0  0  0  0  0  0
    0.8491    0.4141    0.0000 C   0  0  0  0  0  0  0  0  0  0  0  0
    0.8491    1.9141    0.0000 C   0  0  0  0  0  0  0  0  0  0  0  0
    2.1483    2.6641    0.0000 C   0  0  0  0  0  0  0  0  0  0  0  0
  1  2  1  0  0  0  0
  2  3  2  0  0  0  0
  2  4  1  0  0  0  0
  4  5  1  0  0  0  0
  5  6  1  0  0  0  0
  6  7  2  0  0  0  0
  6  8  1  0  0  0  0
  9  8  2  0  0  0  0
  8 13  1  0  0  0  0
 10  9  1  0  0  0  0
 11 10  2  0  0  0  0
 12 11  1  0  0  0  0
 13 12  2  0  0  0  0
M  END
> <Inchi_key>
QIAFMBKCNZACKA-UHFFFAOYSA-N

> <Source>
Mulliner

> <ID>
HT1035

> <H_MFHB>
0

> <CAS>


> <Cholestasis>


> <Name>
hippuric acid (from methene hippurate)

> <Class>
0

$$$$