
  -INDIGO-08031710012D

 25 27  0  0  0  0  0  0  0  0999 V2000
   -0.9620    1.6663    0.0000 C   0  0  0  0  0  0  0  0  0  0  0  0
   -0.2121    2.9653    0.0000 O   0  0  0  0  0  0  0  0  0  0  0  0
    1.2879    2.9653    0.0000 C   0  0  0  0  0  0  0  0  0  0  0  0
    2.0381    4.2644    0.0000 C   0  0  0  0  0  0  0  0  0  0  0  0
    3.5381    4.2644    0.0000 N   0  0  0  0  0  0  0  0  0  0  0  0
    4.2880    2.9653    0.0000 C   0  0  0  0  0  0  0  0  0  0  0  0
    3.5381    1.6663    0.0000 S   0  0  0  0  0  0  0  0  0  0  0  0
    2.0381    1.6663    0.0000 C   0  0  0  0  0  0  0  0  0  0  0  0
    5.5870    3.7153    0.0000 C   0  0  0  0  0  0  0  0  0  0  0  0
    7.0359    3.3271    0.0000 N   0  0  0  0  0  0  0  0  0  0  0  0
    8.0966    4.3878    0.0000 C   0  0  0  0  0  0  0  0  0  0  0  0
    7.7082    5.8367    0.0000 O   0  0  0  0  0  0  0  0  0  0  0  0
    9.5453    3.9995    0.0000 C   0  0  0  0  0  0  0  0  0  0  0  0
    9.9337    2.5506    0.0000 N   0  0  0  0  0  0  0  0  0  0  0  0
   10.6061    5.0602    0.0000 C   0  0  0  0  0  0  0  0  0  0  0  0
   12.0550    4.6720    0.0000 C   0  0  0  0  0  0  0  0  0  0  0  0
   13.1157    5.7326    0.0000 C   0  0  0  0  0  0  0  0  0  0  0  0
   12.7273    7.1815    0.0000 C   0  0  0  0  0  0  0  0  0  0  0  0
   11.2784    7.5697    0.0000 C   0  0  0  0  0  0  0  0  0  0  0  0
   10.2179    6.5091    0.0000 C   0  0  0  0  0  0  0  0  0  0  0  0
    4.8371    5.0144    0.0000 C   0  0  0  0  0  0  0  0  0  0  0  0
    5.2252    6.4633    0.0000 O   0  0  0  0  0  0  0  0  0  0  0  0
    1.2879    5.5634    0.0000 C   0  0  0  0  0  0  0  0  0  0  0  0
   -0.2121    5.5634    0.0000 O   0  0  0  0  0  0  0  0  0  0  0  0
    2.0381    6.8624    0.0000 O   0  0  0  0  0  0  0  0  0  0  0  0
  1  2  1  0  0  0  0
  2  3  1  0  0  0  0
  4  3  2  0  0  0  0
  3  8  1  0  0  0  0
  5  4  1  0  0  0  0
  4 23  1  0  0  0  0
  5  6  1  0  0  0  0
 21  5  1  0  0  0  0
  7  6  1  0  0  0  0
  6  9  1  0  0  0  0
  8  7  1  0  0  0  0
  9 10  1  0  0  0  0
  9 21  1  0  0  0  0
 10 11  1  0  0  0  0
 11 12  2  0  0  0  0
 11 13  1  0  0  0  0
 13 14  1  0  0  0  0
 13 15  1  0  0  0  0
 16 15  2  0  0  0  0
 15 20  1  0  0  0  0
 17 16  1  0  0  0  0
 18 17  1  0  0  0  0
 19 18  2  0  0  0  0
 20 19  1  0  0  0  0
 21 22  2  0  0  0  0
 23 24  2  0  0  0  0
 23 25  1  0  0  0  0
M  END
> <Inchi_key>
RDMOROXKXONCAL-UHFFFAOYSA-N

> <Source>
Mulliner

> <ID>
HT1645

> <H_MFHB>
0

> <CAS>


> <Cholestasis>


> <Name>
pheneticillin

> <Class>
0

$$$$