
  -INDIGO-08031710012D

 25 25  0  0  0  0  0  0  0  0999 V2000
    1.3842   -3.8308    0.0000 C   0  0  0  0  0  0  0  0  0  0  0  0
    2.5331   -2.8666    0.0000 C   0  0  0  0  0  0  0  0  0  0  0  0
    3.9429   -3.3798    0.0000 C   0  0  0  0  0  0  0  0  0  0  0  0
    2.2728   -1.3894    0.0000 C   0  0  0  0  0  0  0  0  0  0  0  0
    0.9737   -0.6393    0.0000 C   0  0  0  0  0  0  0  0  0  0  0  0
    0.9737    0.8606    0.0000 C   0  0  0  0  0  0  0  0  0  0  0  0
    2.2728    1.6106    0.0000 C   0  0  0  0  0  0  0  0  0  0  0  0
    3.5718    0.8606    0.0000 C   0  0  0  0  0  0  0  0  0  0  0  0
    4.8708    1.6106    0.0000 C   0  0  0  0  0  0  0  0  0  0  0  0
    6.1699    0.8606    0.0000 C   0  0  0  0  0  0  0  0  0  0  0  0
    4.8708    3.1106    0.0000 C   0  0  0  0  0  0  0  0  0  0  0  0
    3.5718   -0.6393    0.0000 C   0  0  0  0  0  0  0  0  0  0  0  0
    4.8708   -1.3894    0.0000 N   0  0  0  0  0  0  0  0  0  0  0  0
    6.3196   -1.0012    0.0000 C   0  0  0  0  0  0  0  0  0  0  0  0
    7.0697   -2.3002    0.0000 O   0  0  0  0  0  0  0  0  0  0  0  0
    7.0697    0.2978    0.0000 C   0  0  0  0  0  0  0  0  0  0  0  0
    8.5696    0.2978    0.0000 N   0  0  0  0  0  0  0  0  0  0  0  0
    9.3197   -1.0012    0.0000 C   0  0  0  0  0  0  0  0  0  0  0  0
   10.8196   -1.0012    0.0000 C   0  0  0  0  0  0  0  0  0  0  0  0
   11.5697   -2.3002    0.0000 O   0  0  0  0  0  0  0  0  0  0  0  0
   11.5697    0.2978    0.0000 O   0  0  0  0  0  0  0  0  0  0  0  0
    9.3197    1.5969    0.0000 C   0  0  0  0  0  0  0  0  0  0  0  0
    8.5696    2.8959    0.0000 C   0  0  0  0  0  0  0  0  0  0  0  0
    9.3197    4.1950    0.0000 O   0  0  0  0  0  0  0  0  0  0  0  0
    7.0697    2.8959    0.0000 O   0  0  0  0  0  0  0  0  0  0  0  0
  1  2  1  0  0  0  0
  2  3  1  0  0  0  0
  2  4  1  0  0  0  0
  5  4  2  0  0  0  0
  4 12  1  0  0  0  0
  6  5  1  0  0  0  0
  7  6  2  0  0  0  0
  8  7  1  0  0  0  0
  8  9  1  0  0  0  0
 12  8  2  0  0  0  0
  9 10  1  0  0  0  0
  9 11  1  0  0  0  0
 12 13  1  0  0  0  0
 13 14  1  0  0  0  0
 14 15  2  0  0  0  0
 14 16  1  0  0  0  0
 16 17  1  0  0  0  0
 17 18  1  0  0  0  0
 17 22  1  0  0  0  0
 18 19  1  0  0  0  0
 19 20  2  0  0  0  0
 19 21  1  0  0  0  0
 22 23  1  0  0  0  0
 23 24  2  0  0  0  0
 23 25  1  0  0  0  0
M  END
> <Inchi_key>
UDUSOMRJOPCWHT-UHFFFAOYSA-N

> <Source>
Mulliner

> <ID>
HT3599

> <H_MFHB>
0

> <CAS>


> <Cholestasis>


> <Name>


> <Class>
0

$$$$