

  -INDIGO-08031710012D

 30 35  0  0  0  0  0  0  0  0999 V2000
    8.5871   -1.9193    0.0000 C   0  0  0  0  0  0  0  0  0  0  0  0
    7.7945   -3.1824    0.0000 C   0  0  0  0  0  0  0  0  0  0  0  0
    8.3540   -4.5865    0.0000 C   0  0  0  0  0  0  0  0  0  0  0  0
    9.7956   -4.9749    0.0000 O   0  0  0  0  0  0  0  0  0  0  0  0
    7.1608   -5.5004    0.0000 O   0  0  0  0  0  0  0  0  0  0  0  0
    5.8536   -4.7670    0.0000 C   0  0  0  0  0  0  0  0  0  0  0  0
    4.3376   -4.7915    0.0000 C   0  0  0  0  0  0  0  0  0  0  0  0
    3.5299   -6.0707    0.0000 O   0  0  0  0  0  0  0  0  0  0  0  0
    3.7771   -3.3405    0.0000 C   0  0  0  0  0  0  0  0  0  0  0  0
    3.5918   -4.7138    0.0000 C   0  0  0  0  0  0  0  0  0  0  0  0
    2.0780   -4.9373    0.0000 C   0  0  0  0  0  0  0  0  0  0  0  0
    1.4225   -3.5554    0.0000 C   0  0  0  0  0  0  0  0  0  0  0  0
   -0.0419   -3.8857    0.0000 C   0  0  0  0  0  0  0  0  0  0  0  0
    0.2726   -5.3369    0.0000 C   0  0  0  0  0  0  0  0  0  0  0  0
   -1.5136   -4.2034    0.0000 C   0  0  0  0  0  0  0  0  0  0  0  0
   -0.3995   -2.4020    0.0000 C   0  0  0  0  0  0  0  0  0  0  0  0
    2.5404   -2.5122    0.0000 C   0  0  0  0  0  0  0  0  0  0  0  0
    3.0955   -1.0846    0.0000 C   0  0  0  0  0  0  0  0  0  0  0  0
    1.9298   -0.1413    0.0000 O   0  0  0  0  0  0  0  0  0  0  0  0
    0.6773   -0.9402    0.0000 C   0  0  0  0  0  0  0  0  0  0  0  0
   -0.7262   -0.4136    0.0000 O   0  0  0  0  0  0  0  0  0  0  0  0
    1.0627   -2.3990    0.0000 C   0  0  0  0  0  0  0  0  0  0  0  0
   -0.2644   -3.1209    0.0000 O   0  0  0  0  0  0  0  0  0  0  0  0
    4.5944   -1.1418    0.0000 O   0  0  0  0  0  0  0  0  0  0  0  0
    5.0098   -2.6163    0.0000 C   0  0  0  0  0  0  0  0  0  0  0  0
    5.9182   -3.9218    0.0000 C   0  0  0  0  0  0  0  0  0  0  0  0
    7.4061   -3.9598    0.0000 O   0  0  0  0  0  0  0  0  0  0  0  0
    5.0849   -5.1780    0.0000 O   0  0  0  0  0  0  0  0  0  0  0  0
    6.2889   -3.3056    0.0000 C   0  0  0  0  0  0  0  0  0  0  0  0
    6.6003   -1.8318    0.0000 O   0  0  0  0  0  0  0  0  0  0  0  0
  1  2  1  0  0  0  0
  3  2  1  0  0  0  0
  2 29  1  0  0  0  0
  3  4  2  0  0  0  0
  5  3  1  0  0  0  0
  6  5  1  0  0  0  0
  7  6  1  0  0  0  0
  6 29  1  0  0  0  0
  7  8  1  0  0  0  0
  9  7  1  0  0  0  0
  9 10  1  0  0  0  0
 17  9  1  0  0  0  0
  9 25  1  0  0  0  0
 10 11  1  0  0  0  0
 28 10  1  0  0  0  0
 11 12  1  0  0  0  0
 12 13  1  0  0  0  0
 12 17  1  0  0  0  0
 13 14  1  0  0  0  0
 13 15  1  0  0  0  0
 13 16  1  0  0  0  0
 18 17  1  0  0  0  0
 17 22  1  0  0  0  0
 19 18  1  0  0  0  0
 18 24  1  0  0  0  0
 20 19  1  0  0  0  0
 20 21  2  0  0  0  0
 22 20  1  0  0  0  0
 22 23  1  0  0  0  0
 24 25  1  0  0  0  0
 25 26  1  0  0  0  0
 29 25  1  0  0  0  0
 26 27  2  0  0  0  0
 26 28  1  0  0  0  0
 29 30  1  0  0  0  0
M  END
> <Inchi_key>
SQOJOAFXDQDRGF-UHFFFAOYSA-N

> <Source>
Mulliner

> <ID>
HT0976

> <H_MFHB>
0

> <CAS>


> <Cholestasis>


> <Name>
ginkgolide-b

> <Class>
0


$$$$