
  -INDIGO-08031710012D

 21 23  0  0  0  0  0  0  0  0999 V2000
   13.3786   -3.5217    0.0000 C   0  0  0  0  0  0  0  0  0  0  0  0
   12.0730   -2.7831    0.0000 N   0  0  0  0  0  0  0  0  0  0  0  0
   10.7720   -2.5923    0.0000 C   0  0  0  0  0  0  0  0  0  0  0  0
   10.6375   -1.1598    0.0000 C   0  0  0  0  0  0  0  0  0  0  0  0
   11.2834    0.0076    0.0000 C   0  0  0  0  0  0  0  0  0  0  0  0
   11.1099   -1.6088    0.0000 C   0  0  0  0  0  0  0  0  0  0  0  0
    9.5544   -2.5016    0.0000 C   0  0  0  0  0  0  0  0  0  0  0  0
    8.3318   -2.2894    0.0000 C   0  0  0  0  0  0  0  0  0  0  0  0
    9.3047   -3.4653    0.0000 C   0  0  0  0  0  0  0  0  0  0  0  0
    7.0346   -1.5362    0.0000 O   0  0  0  0  0  0  0  0  0  0  0  0
    5.7338   -2.2829    0.0000 C   0  0  0  0  0  0  0  0  0  0  0  0
    5.7299   -3.7829    0.0000 O   0  0  0  0  0  0  0  0  0  0  0  0
    4.4365   -1.5296    0.0000 C   0  0  0  0  0  0  0  0  0  0  0  0
    4.4404   -0.0296    0.0000 C   0  0  0  0  0  0  0  0  0  0  0  0
    3.1433    0.7237    0.0000 O   0  0  0  0  0  0  0  0  0  0  0  0
    3.1356   -2.2763    0.0000 C   0  0  0  0  0  0  0  0  0  0  0  0
    1.8385   -1.5230    0.0000 C   0  0  0  0  0  0  0  0  0  0  0  0
    0.5374   -2.2697    0.0000 C   0  0  0  0  0  0  0  0  0  0  0  0
    0.5337   -3.7697    0.0000 C   0  0  0  0  0  0  0  0  0  0  0  0
    1.8308   -4.5230    0.0000 C   0  0  0  0  0  0  0  0  0  0  0  0
    3.1319   -3.7763    0.0000 C   0  0  0  0  0  0  0  0  0  0  0  0
  1  2  1  0  0  0  0
  3  2  1  0  0  0  0
  2  6  1  0  0  0  0
  3  4  1  0  0  0  0
  9  3  1  0  0  0  0
  4  5  1  0  0  0  0
  5  6  1  0  0  0  0
  6  7  1  0  0  0  0
  7  8  1  0  0  0  0
  8  9  1  0  0  0  0
  8 10  1  0  0  0  0
 10 11  1  0  0  0  0
 11 12  2  0  0  0  0
 11 13  1  0  0  0  0
 13 14  1  0  0  0  0
 13 16  1  0  0  0  0
 14 15  1  0  0  0  0
 17 16  2  0  0  0  0
 16 21  1  0  0  0  0
 18 17  1  0  0  0  0
 19 18  2  0  0  0  0
 20 19  1  0  0  0  0
 21 20  2  0  0  0  0
M  END
> <Inchi_key>
RKUNBYITZUJHSG-UHFFFAOYSA-N

> <Source>
Mulliner

> <ID>
HT0200

> <H_MFHB>
0

> <CAS>


> <Cholestasis>


> <Name>
atropine sulfate;hyoscyamine;atropine

> <Class>
0

$$$$