

  -INDIGO-08031710012D

 16 17  0  0  0  0  0  0  0  0999 V2000
   10.1371   -4.9209    0.0000 C   0  0  0  0  0  0  0  0  0  0  0  0
    8.8380   -5.6709    0.0000 O   0  0  0  0  0  0  0  0  0  0  0  0
    7.5390   -4.9209    0.0000 C   0  0  0  0  0  0  0  0  0  0  0  0
    6.2398   -5.6709    0.0000 C   0  0  0  0  0  0  0  0  0  0  0  0
    4.9408   -4.9209    0.0000 C   0  0  0  0  0  0  0  0  0  0  0  0
    4.9408   -3.4209    0.0000 C   0  0  0  0  0  0  0  0  0  0  0  0
    6.2398   -2.6709    0.0000 C   0  0  0  0  0  0  0  0  0  0  0  0
    7.5390   -3.4209    0.0000 C   0  0  0  0  0  0  0  0  0  0  0  0
    3.6419   -2.6709    0.0000 C   0  0  0  0  0  0  0  0  0  0  0  0
    3.6419   -1.1709    0.0000 O   0  0  0  0  0  0  0  0  0  0  0  0
    2.3429   -3.4209    0.0000 N   0  0  0  0  0  0  0  0  0  0  0  0
    2.1860   -4.9127    0.0000 C   0  0  0  0  0  0  0  0  0  0  0  0
    0.7188   -5.2245    0.0000 C   0  0  0  0  0  0  0  0  0  0  0  0
   -0.0312   -3.9255    0.0000 C   0  0  0  0  0  0  0  0  0  0  0  0
    0.9725   -2.8108    0.0000 C   0  0  0  0  0  0  0  0  0  0  0  0
    0.6607   -1.3436    0.0000 O   0  0  0  0  0  0  0  0  0  0  0  0
  1  2  1  0  0  0  0
  2  3  1  0  0  0  0
  4  3  2  0  0  0  0
  3  8  1  0  0  0  0
  5  4  1  0  0  0  0
  6  5  2  0  0  0  0
  7  6  1  0  0  0  0
  6  9  1  0  0  0  0
  8  7  2  0  0  0  0
  9 10  2  0  0  0  0
  9 11  1  0  0  0  0
 12 11  1  0  0  0  0
 11 15  1  0  0  0  0
 13 12  1  0  0  0  0
 14 13  1  0  0  0  0
 15 14  1  0  0  0  0
 15 16  2  0  0  0  0
M  END
> <Inchi_key>
ZXNRTKGTQJPIJK-UHFFFAOYSA-N

> <Source>
Mulliner

> <ID>
HT0161

> <H_MFHB>
0

> <CAS>


> <Cholestasis>


> <Name>
aniracetam

> <Class>
0


$$$$