
  -INDIGO-08031710012D

 52 60  0  0  0  0  0  0  0  0999 V2000
   21.4387   -1.3077    0.0000 C   0  0  0  0  0  0  0  0  0  0  0  0
   19.9498   -1.1260    0.0000 C   0  0  0  0  0  0  0  0  0  0  0  0
   19.0475   -2.3243    0.0000 C   0  0  0  0  0  0  0  0  0  0  0  0
   19.2735   -3.6004    0.0000 C   0  0  0  0  0  0  0  0  0  0  0  0
   17.7506   -3.8751    0.0000 C   0  0  0  0  0  0  0  0  0  0  0  0
   17.4821   -5.2457    0.0000 C   0  0  0  0  0  0  0  0  0  0  0  0
   16.8609   -4.3146    0.0000 N   0  0  0  0  0  0  0  0  0  0  0  0
   15.3983   -5.0574    0.0000 C   0  0  0  0  0  0  0  0  0  0  0  0
   14.0496   -4.5103    0.0000 C   0  0  0  0  0  0  0  0  0  0  0  0
   13.5619   -3.3152    0.0000 C   0  0  0  0  0  0  0  0  0  0  0  0
   14.2434   -2.2263    0.0000 C   0  0  0  0  0  0  0  0  0  0  0  0
   13.4266   -1.0104    0.0000 N   0  0  0  0  0  0  0  0  0  0  0  0
   11.9984   -1.4658    0.0000 C   0  0  0  0  0  0  0  0  0  0  0  0
   10.7018   -0.7154    0.0000 C   0  0  0  0  0  0  0  0  0  0  0  0
    9.3986   -1.4466    0.0000 C   0  0  0  0  0  0  0  0  0  0  0  0
    8.0984   -0.7130    0.0000 C   0  0  0  0  0  0  0  0  0  0  0  0
    6.8079   -1.6477    0.0000 C   0  0  0  0  0  0  0  0  0  0  0  0
    5.5559   -0.6537    0.0000 C   0  0  0  0  0  0  0  0  0  0  0  0
    6.1671    0.6431    0.0000 C   0  0  0  0  0  0  0  0  0  0  0  0
    5.4405    1.9096    0.0000 C   0  0  0  0  0  0  0  0  0  0  0  0
    6.6783    2.9679    0.0000 C   0  0  0  0  0  0  0  0  0  0  0  0
    7.9884    2.1080    0.0000 C   0  0  0  0  0  0  0  0  0  0  0  0
    8.1430    0.6944    0.0000 C   0  0  0  0  0  0  0  0  0  0  0  0
    9.5746    0.3347    0.0000 N   0  0  0  0  0  0  0  0  0  0  0  0
   10.3648    1.6093    0.0000 C   0  0  0  0  0  0  0  0  0  0  0  0
   11.8413    1.8771    0.0000 C   0  0  0  0  0  0  0  0  0  0  0  0
   12.3446    3.2909    0.0000 C   0  0  0  0  0  0  0  0  0  0  0  0
   11.3745    4.4336    0.0000 C   0  0  0  0  0  0  0  0  0  0  0  0
    9.8971    4.1641    0.0000 C   0  0  0  0  0  0  0  0  0  0  0  0
    9.3959    2.7513    0.0000 C   0  0  0  0  0  0  0  0  0  0  0  0
    3.9830    1.8554    0.0000 N   0  0  0  0  0  0  0  0  0  0  0  0
    3.3904    3.1971    0.0000 C   0  0  0  0  0  0  0  0  0  0  0  0
    3.3115    0.5202    0.0000 C   0  0  0  0  0  0  0  0  0  0  0  0
    4.0366   -0.6867    0.0000 C   0  0  0  0  0  0  0  0  0  0  0  0
    3.1783   -1.8949    0.0000 C   0  0  0  0  0  0  0  0  0  0  0  0
    1.6873   -1.8095    0.0000 C   0  0  0  0  0  0  0  0  0  0  0  0
    4.7226    0.3148    0.0000 C   0  0  0  0  0  0  0  0  0  0  0  0
    4.7801   -1.2963    0.0000 O   0  0  0  0  0  0  0  0  0  0  0  0
    3.3980    0.9323    0.0000 O   0  0  0  0  0  0  0  0  0  0  0  0
    2.1101    0.1570    0.0000 C   0  0  0  0  0  0  0  0  0  0  0  0
    9.3947   -2.9591    0.0000 C   0  0  0  0  0  0  0  0  0  0  0  0
    8.0888   -3.6913    0.0000 O   0  0  0  0  0  0  0  0  0  0  0  0
    8.0653   -5.1911    0.0000 C   0  0  0  0  0  0  0  0  0  0  0  0
   10.6873   -3.7064    0.0000 C   0  0  0  0  0  0  0  0  0  0  0  0
   11.9926   -2.9684    0.0000 C   0  0  0  0  0  0  0  0  0  0  0  0
   15.9703   -1.8205    0.0000 C   0  0  0  0  0  0  0  0  0  0  0  0
   16.1780   -3.1864    0.0000 C   0  0  0  0  0  0  0  0  0  0  0  0
   17.2117   -2.5191    0.0000 C   0  0  0  0  0  0  0  0  0  0  0  0
   16.1316   -0.3290    0.0000 C   0  0  0  0  0  0  0  0  0  0  0  0
   17.5074    0.2739    0.0000 O   0  0  0  0  0  0  0  0  0  0  0  0
   14.9254    0.5595    0.0000 O   0  0  0  0  0  0  0  0  0  0  0  0
   15.0885    2.0507    0.0000 C   0  0  0  0  0  0  0  0  0  0  0  0
  1  2  1  0  0  0  0
  2  3  1  0  0  0  0
  4  3  1  0  0  0  0
  3 48  1  0  0  0  0
  5  4  1  0  0  0  0
  5  6  1  0  0  0  0
 47  5  1  0  0  0  0
  6  7  1  0  0  0  0
  7  8  1  0  0  0  0
  7 48  1  0  0  0  0
  8  9  1  0  0  0  0
  9 10  1  0  0  0  0
 11 10  2  0  0  0  0
 10 45  1  0  0  0  0
 12 11  1  0  0  0  0
 11 46  1  0  0  0  0
 13 12  1  0  0  0  0
 14 13  2  0  0  0  0
 13 45  1  0  0  0  0
 15 14  1  0  0  0  0
 15 16  1  0  0  0  0
 41 15  2  0  0  0  0
 17 16  1  0  0  0  0
 16 23  1  0  0  0  0
 18 17  1  0  0  0  0
 18 19  1  0  0  0  0
 34 18  1  0  0  0  0
 19 20  1  0  0  0  0
 19 37  1  0  0  0  0
 21 20  1  0  0  0  0
 20 31  1  0  0  0  0
 22 21  1  0  0  0  0
 22 23  2  0  0  0  0
 30 22  1  0  0  0  0
 23 24  1  0  0  0  0
 24 25  1  0  0  0  0
 26 25  2  0  0  0  0
 25 30  1  0  0  0  0
 27 26  1  0  0  0  0
 28 27  2  0  0  0  0
 29 28  1  0  0  0  0
 30 29  2  0  0  0  0
 31 32  1  0  0  0  0
 31 33  1  0  0  0  0
 33 34  1  0  0  0  0
 34 35  2  0  0  0  0
 35 36  1  0  0  0  0
 37 38  2  0  0  0  0
 37 39  1  0  0  0  0
 39 40  1  0  0  0  0
 41 42  1  0  0  0  0
 44 41  1  0  0  0  0
 42 43  1  0  0  0  0
 45 44  2  0  0  0  0
 46 47  1  0  0  0  0
 48 46  1  0  0  0  0
 46 49  1  0  0  0  0
 49 50  2  0  0  0  0
 49 51  1  0  0  0  0
 51 52  1  0  0  0  0
M  END
> <Inchi_key>
VCMIRXRRQJNZJT-ZNLRHDTNSA-N

> <Source>
Mulliner

> <ID>
HT2192

> <H_MFHB>
0

> <CAS>


> <Cholestasis>


> <Name>
voacamine

> <Class>
0

$$$$