

  -INDIGO-08031710012D

 29 32  0  0  0  0  0  0  0  0999 V2000
   14.7882   -0.7541    0.0000 N   0  0  0  0  0  0  0  0  0  0  0  0
   13.2959   -0.6014    0.0000 C   0  0  0  0  0  0  0  0  0  0  0  0
   12.5421    0.6955    0.0000 C   0  0  0  0  0  0  0  0  0  0  0  0
   11.0759    0.3795    0.0000 C   0  0  0  0  0  0  0  0  0  0  0  0
   10.9233   -1.1129    0.0000 N   0  0  0  0  0  0  0  0  0  0  0  0
   12.2955   -1.7189    0.0000 C   0  0  0  0  0  0  0  0  0  0  0  0
    9.6265   -1.8664    0.0000 C   0  0  0  0  0  0  0  0  0  0  0  0
    8.3253   -1.1201    0.0000 N   0  0  0  0  0  0  0  0  0  0  0  0
    7.0284   -1.8738    0.0000 C   0  0  0  0  0  0  0  0  0  0  0  0
    5.7272   -1.1275    0.0000 N   0  0  0  0  0  0  0  0  0  0  0  0
    4.4304   -1.8812    0.0000 C   0  0  0  0  0  0  0  0  0  0  0  0
    4.4345   -3.3813    0.0000 C   0  0  0  0  0  0  0  0  0  0  0  0
    3.1377   -4.1348    0.0000 C   0  0  0  0  0  0  0  0  0  0  0  0
    3.1418   -5.6349    0.0000 O   0  0  0  0  0  0  0  0  0  0  0  0
    1.8365   -3.3886    0.0000 O   0  0  0  0  0  0  0  0  0  0  0  0
    5.7357   -4.1275    0.0000 C   0  0  0  0  0  0  0  0  0  0  0  0
    5.7401   -5.6275    0.0000 O   0  0  0  0  0  0  0  0  0  0  0  0
    7.0326   -3.3737    0.0000 C   0  0  0  0  0  0  0  0  0  0  0  0
    8.3338   -4.1201    0.0000 C   0  0  0  0  0  0  0  0  0  0  0  0
    9.6306   -3.3664    0.0000 C   0  0  0  0  0  0  0  0  0  0  0  0
   10.9318   -4.1129    0.0000 F   0  0  0  0  0  0  0  0  0  0  0  0
    5.7231    0.3724    0.0000 C   0  0  0  0  0  0  0  0  0  0  0  0
    7.0199    1.1262    0.0000 C   0  0  0  0  0  0  0  0  0  0  0  0
    7.0156    2.6262    0.0000 C   0  0  0  0  0  0  0  0  0  0  0  0
    5.7144    3.3724    0.0000 C   0  0  0  0  0  0  0  0  0  0  0  0
    5.7103    4.8725    0.0000 F   0  0  0  0  0  0  0  0  0  0  0  0
    4.4176    2.6189    0.0000 C   0  0  0  0  0  0  0  0  0  0  0  0
    4.4217    1.1188    0.0000 C   0  0  0  0  0  0  0  0  0  0  0  0
    3.1249    0.3651    0.0000 F   0  0  0  0  0  0  0  0  0  0  0  0
  1  2  1  0  0  0  0
  3  2  1  0  0  0  0
  2  6  1  0  0  0  0
  4  3  1  0  0  0  0
  5  4  1  0  0  0  0
  6  5  1  0  0  0  0
  5  7  1  0  0  0  0
  8  7  2  0  0  0  0
  7 20  1  0  0  0  0
  9  8  1  0  0  0  0
 10  9  1  0  0  0  0
  9 18  2  0  0  0  0
 11 10  1  0  0  0  0
 10 22  1  0  0  0  0
 12 11  2  0  0  0  0
 12 13  1  0  0  0  0
 16 12  1  0  0  0  0
 13 14  2  0  0  0  0
 13 15  1  0  0  0  0
 16 17  2  0  0  0  0
 18 16  1  0  0  0  0
 19 18  1  0  0  0  0
 20 19  2  0  0  0  0
 20 21  1  0  0  0  0
 23 22  2  0  0  0  0
 22 28  1  0  0  0  0
 24 23  1  0  0  0  0
 25 24  2  0  0  0  0
 25 26  1  0  0  0  0
 27 25  1  0  0  0  0
 28 27  2  0  0  0  0
 28 29  1  0  0  0  0
M  END
> <Inchi_key>
WUWFMDMBOJLQIV-UHFFFAOYSA-N

> <Source>
Mulliner

> <ID>
HT2093

> <H_MFHB>
0

> <CAS>
100490-36-6

> <Cholestasis>


> <Name>
tosufloxacin

> <Class>
0


$$$$