
  -INDIGO-08031710012D

 32 34  0  0  0  0  0  0  0  0999 V2000
   16.2070    9.0719    0.0000 C   0  0  0  0  0  0  0  0  0  0  0  0
   15.4227    7.7934    0.0000 C   0  0  0  0  0  0  0  0  0  0  0  0
   16.7013    7.0091    0.0000 C   0  0  0  0  0  0  0  0  0  0  0  0
   14.6385    6.5147    0.0000 C   0  0  0  0  0  0  0  0  0  0  0  0
   14.1439    8.5776    0.0000 C   0  0  0  0  0  0  0  0  0  0  0  0
   14.1840   10.0771    0.0000 O   0  0  0  0  0  0  0  0  0  0  0  0
   12.8255    7.8624    0.0000 O   0  0  0  0  0  0  0  0  0  0  0  0
   11.5469    8.6466    0.0000 C   0  0  0  0  0  0  0  0  0  0  0  0
   10.2285    7.9316    0.0000 O   0  0  0  0  0  0  0  0  0  0  0  0
    8.9497    8.7158    0.0000 C   0  0  0  0  0  0  0  0  0  0  0  0
    8.9895   10.2152    0.0000 O   0  0  0  0  0  0  0  0  0  0  0  0
    7.6313    8.0006    0.0000 C   0  0  0  0  0  0  0  0  0  0  0  0
    6.2777    8.6469    0.0000 N   0  0  0  0  0  0  0  0  0  0  0  0
    5.2446    7.5592    0.0000 C   0  0  0  0  0  0  0  0  0  0  0  0
    5.9597    6.2407    0.0000 S   0  0  0  0  0  0  0  0  0  0  0  0
    7.4348    6.5135    0.0000 C   0  0  0  0  0  0  0  0  0  0  0  0
    8.9019    6.2011    0.0000 C   0  0  0  0  0  0  0  0  0  0  0  0
    7.8225    5.0644    0.0000 C   0  0  0  0  0  0  0  0  0  0  0  0
    4.1569    8.5921    0.0000 C   0  0  0  0  0  0  0  0  0  0  0  0
    2.6575    8.5535    0.0000 N   0  0  0  0  0  0  0  0  0  0  0  0
    1.9412    7.2356    0.0000 C   0  0  0  0  0  0  0  0  0  0  0  0
    2.7243    5.9563    0.0000 O   0  0  0  0  0  0  0  0  0  0  0  0
    0.4416    7.1968    0.0000 C   0  0  0  0  0  0  0  0  0  0  0  0
   -0.3415    8.4763    0.0000 N   0  0  0  0  0  0  0  0  0  0  0  0
   -0.2747    5.8791    0.0000 C   0  0  0  0  0  0  0  0  0  0  0  0
    0.5086    4.5996    0.0000 C   0  0  0  0  0  0  0  0  0  0  0  0
   -0.2077    3.2819    0.0000 C   0  0  0  0  0  0  0  0  0  0  0  0
   -1.7070    3.2431    0.0000 C   0  0  0  0  0  0  0  0  0  0  0  0
   -2.4904    4.5224    0.0000 C   0  0  0  0  0  0  0  0  0  0  0  0
   -1.7741    5.8403    0.0000 C   0  0  0  0  0  0  0  0  0  0  0  0
    5.1898    9.6799    0.0000 C   0  0  0  0  0  0  0  0  0  0  0  0
    5.1514   11.1793    0.0000 O   0  0  0  0  0  0  0  0  0  0  0  0
  1  2  1  0  0  0  0
  2  3  1  0  0  0  0
  2  4  1  0  0  0  0
  2  5  1  0  0  0  0
  5  6  2  0  0  0  0
  5  7  1  0  0  0  0
  7  8  1  0  0  0  0
  8  9  1  0  0  0  0
  9 10  1  0  0  0  0
 10 11  2  0  0  0  0
 10 12  1  0  0  0  0
 13 12  1  0  0  0  0
 12 16  1  0  0  0  0
 13 14  1  0  0  0  0
 31 13  1  0  0  0  0
 15 14  1  0  0  0  0
 14 19  1  0  0  0  0
 16 15  1  0  0  0  0
 16 17  1  0  0  0  0
 16 18  1  0  0  0  0
 19 20  1  0  0  0  0
 19 31  1  0  0  0  0
 20 21  1  0  0  0  0
 21 22  2  0  0  0  0
 21 23  1  0  0  0  0
 23 24  1  0  0  0  0
 23 25  1  0  0  0  0
 26 25  2  0  0  0  0
 25 30  1  0  0  0  0
 27 26  1  0  0  0  0
 28 27  2  0  0  0  0
 29 28  1  0  0  0  0
 30 29  2  0  0  0  0
 31 32  2  0  0  0  0
M  END
> <Inchi_key>
ZEMIJUDPLILVNQ-UHFFFAOYSA-N

> <Source>
Mulliner

> <ID>
HT1699

> <H_MFHB>
0

> <CAS>


> <Cholestasis>


> <Name>
pivampicillin

> <Class>
0

$$$$