
  -INDIGO-08031710012D

 36 38  0  0  0  0  0  0  0  0999 V2000
   14.9798    4.0139    0.0000 C   0  0  0  0  0  0  0  0  0  0  0  0
   13.6808    3.2637    0.0000 C   0  0  0  0  0  0  0  0  0  0  0  0
   12.3818    4.0139    0.0000 O   0  0  0  0  0  0  0  0  0  0  0  0
   11.0828    3.2637    0.0000 C   0  0  0  0  0  0  0  0  0  0  0  0
   11.0828    1.7638    0.0000 O   0  0  0  0  0  0  0  0  0  0  0  0
    9.7838    4.0139    0.0000 C   0  0  0  0  0  0  0  0  0  0  0  0
    9.7838    5.5138    0.0000 C   0  0  0  0  0  0  0  0  0  0  0  0
   11.0828    6.2638    0.0000 C   0  0  0  0  0  0  0  0  0  0  0  0
   11.0828    7.7637    0.0000 C   0  0  0  0  0  0  0  0  0  0  0  0
   12.3818    8.5139    0.0000 C   0  0  0  0  0  0  0  0  0  0  0  0
   12.3818   10.0138    0.0000 C   0  0  0  0  0  0  0  0  0  0  0  0
   11.0828   10.7638    0.0000 C   0  0  0  0  0  0  0  0  0  0  0  0
    9.7838   10.0138    0.0000 C   0  0  0  0  0  0  0  0  0  0  0  0
    9.7838    8.5139    0.0000 C   0  0  0  0  0  0  0  0  0  0  0  0
    8.4845    3.2637    0.0000 N   0  0  0  0  0  0  0  0  0  0  0  0
    7.1856    4.0139    0.0000 C   0  0  0  0  0  0  0  0  0  0  0  0
    7.1856    5.5138    0.0000 C   0  0  0  0  0  0  0  0  0  0  0  0
    5.8866    3.2637    0.0000 C   0  0  0  0  0  0  0  0  0  0  0  0
    5.8866    1.7638    0.0000 O   0  0  0  0  0  0  0  0  0  0  0  0
    4.5876    4.0139    0.0000 N   0  0  0  0  0  0  0  0  0  0  0  0
    4.5876    5.5138    0.0000 C   0  0  0  0  0  0  0  0  0  0  0  0
    3.2886    6.2638    0.0000 C   0  0  0  0  0  0  0  0  0  0  0  0
    3.2886    7.7637    0.0000 C   0  0  0  0  0  0  0  0  0  0  0  0
    1.9896    8.5139    0.0000 C   0  0  0  0  0  0  0  0  0  0  0  0
    1.9896   10.0138    0.0000 O   0  0  0  0  0  0  0  0  0  0  0  0
    3.2886   10.7638    0.0000 C   0  0  0  0  0  0  0  0  0  0  0  0
    0.6903    7.7637    0.0000 C   0  0  0  0  0  0  0  0  0  0  0  0
   -0.6087    8.5139    0.0000 O   0  0  0  0  0  0  0  0  0  0  0  0
   -1.9077    7.7637    0.0000 C   0  0  0  0  0  0  0  0  0  0  0  0
    0.6903    6.2638    0.0000 C   0  0  0  0  0  0  0  0  0  0  0  0
    1.9896    5.5138    0.0000 C   0  0  0  0  0  0  0  0  0  0  0  0
    1.9896    4.0139    0.0000 C   0  0  0  0  0  0  0  0  0  0  0  0
    3.2886    3.2637    0.0000 C   0  0  0  0  0  0  0  0  0  0  0  0
    3.2886    1.7638    0.0000 C   0  0  0  0  0  0  0  0  0  0  0  0
    4.5876    1.0138    0.0000 O   0  0  0  0  0  0  0  0  0  0  0  0
    1.9896    1.0138    0.0000 O   0  0  0  0  0  0  0  0  0  0  0  0
  1  2  1  0  0  0  0
  2  3  1  0  0  0  0
  3  4  1  0  0  0  0
  4  5  2  0  0  0  0
  4  6  1  0  0  0  0
  6  7  1  0  0  0  0
  6 15  1  0  0  0  0
  7  8  1  0  0  0  0
  8  9  1  0  0  0  0
 10  9  2  0  0  0  0
  9 14  1  0  0  0  0
 11 10  1  0  0  0  0
 12 11  2  0  0  0  0
 13 12  1  0  0  0  0
 14 13  2  0  0  0  0
 15 16  1  0  0  0  0
 16 17  1  0  0  0  0
 16 18  1  0  0  0  0
 18 19  2  0  0  0  0
 18 20  1  0  0  0  0
 21 20  1  0  0  0  0
 20 33  1  0  0  0  0
 22 21  1  0  0  0  0
 23 22  2  0  0  0  0
 22 31  1  0  0  0  0
 24 23  1  0  0  0  0
 24 25  1  0  0  0  0
 27 24  2  0  0  0  0
 25 26  1  0  0  0  0
 27 28  1  0  0  0  0
 30 27  1  0  0  0  0
 28 29  1  0  0  0  0
 31 30  2  0  0  0  0
 32 31  1  0  0  0  0
 33 32  1  0  0  0  0
 33 34  1  0  0  0  0
 34 35  2  0  0  0  0
 34 36  1  0  0  0  0
M  END
> <Inchi_key>
UWWDHYUMIORJTA-UHFFFAOYSA-N

> <Source>
Mulliner , Kotsampasakou

> <ID>
EK0359;HT1423

> <H_MFHB>
0

> <CAS>


> <Cholestasis>
0

> <Name>
moexipril hydrochloride;moexipril

> <Class>
0

$$$$