

  -INDIGO-08031710012D

 25 28  0  0  0  0  0  0  0  0999 V2000
   13.4349   -4.3407    0.0000 N   0  0  0  0  0  0  0  0  0  0  0  0
   12.2185   -3.4630    0.0000 C   0  0  0  0  0  0  0  0  0  0  0  0
   12.2136   -1.9630    0.0000 C   0  0  0  0  0  0  0  0  0  0  0  0
   10.7854   -1.5042    0.0000 C   0  0  0  0  0  0  0  0  0  0  0  0
    9.9077   -2.7207    0.0000 N   0  0  0  0  0  0  0  0  0  0  0  0
   10.7935   -3.9313    0.0000 C   0  0  0  0  0  0  0  0  0  0  0  0
    8.4076   -2.7256    0.0000 C   0  0  0  0  0  0  0  0  0  0  0  0
    7.6620   -4.0272    0.0000 C   0  0  0  0  0  0  0  0  0  0  0  0
    8.4162   -5.3237    0.0000 F   0  0  0  0  0  0  0  0  0  0  0  0
    6.1620   -4.0321    0.0000 C   0  0  0  0  0  0  0  0  0  0  0  0
    5.4077   -2.7356    0.0000 C   0  0  0  0  0  0  0  0  0  0  0  0
    3.9079   -2.7405    0.0000 C   0  0  0  0  0  0  0  0  0  0  0  0
    3.1621   -4.0421    0.0000 O   0  0  0  0  0  0  0  0  0  0  0  0
    3.1535   -1.4440    0.0000 C   0  0  0  0  0  0  0  0  0  0  0  0
    3.8993   -0.1425    0.0000 C   0  0  0  0  0  0  0  0  0  0  0  0
    5.3991   -0.1375    0.0000 N   0  0  0  0  0  0  0  0  0  0  0  0
    6.1447    1.1640    0.0000 C   0  0  0  0  0  0  0  0  0  0  0  0
    7.4414    1.9183    0.0000 C   0  0  0  0  0  0  0  0  0  0  0  0
    6.1400    2.6640    0.0000 C   0  0  0  0  0  0  0  0  0  0  0  0
    6.1533   -1.4341    0.0000 C   0  0  0  0  0  0  0  0  0  0  0  0
    7.6534   -1.4291    0.0000 C   0  0  0  0  0  0  0  0  0  0  0  0
    8.3992   -0.1276    0.0000 Cl  0  0  0  0  0  0  0  0  0  0  0  0
    1.6534   -1.4490    0.0000 C   0  0  0  0  0  0  0  0  0  0  0  0
    0.8992   -0.1524    0.0000 O   0  0  0  0  0  0  0  0  0  0  0  0
    0.9078   -2.7505    0.0000 O   0  0  0  0  0  0  0  0  0  0  0  0
  1  2  1  0  0  0  0
  3  2  1  0  0  0  0
  2  6  1  0  0  0  0
  4  3  1  0  0  0  0
  5  4  1  0  0  0  0
  6  5  1  0  0  0  0
  5  7  1  0  0  0  0
  8  7  2  0  0  0  0
  7 21  1  0  0  0  0
  8  9  1  0  0  0  0
 10  8  1  0  0  0  0
 11 10  2  0  0  0  0
 12 11  1  0  0  0  0
 11 20  1  0  0  0  0
 12 13  2  0  0  0  0
 14 12  1  0  0  0  0
 15 14  2  0  0  0  0
 14 23  1  0  0  0  0
 16 15  1  0  0  0  0
 16 17  1  0  0  0  0
 20 16  1  0  0  0  0
 18 17  1  0  0  0  0
 17 19  1  0  0  0  0
 19 18  1  0  0  0  0
 21 20  2  0  0  0  0
 21 22  1  0  0  0  0
 23 24  2  0  0  0  0
 23 25  1  0  0  0  0
M  END
> <Inchi_key>
QGPKADBNRMWEQR-UHFFFAOYSA-N

> <Source>
Mulliner

> <ID>
HT0510

> <H_MFHB>
0

> <CAS>


> <Cholestasis>


> <Name>
clinafloxacin

> <Class>
0


$$$$