
  -INDIGO-08031710012D

 21 23  0  0  0  0  0  0  0  0999 V2000
    0.0792   -0.0212    0.0000 C   0  0  0  0  0  0  0  0  0  0  0  0
   -1.2199    0.7288    0.0000 C   0  0  0  0  0  0  0  0  0  0  0  0
   -2.5189   -0.0212    0.0000 C   0  0  0  0  0  0  0  0  0  0  0  0
   -3.8180    0.7288    0.0000 C   0  0  0  0  0  0  0  0  0  0  0  0
   -3.8180    2.2288    0.0000 C   0  0  0  0  0  0  0  0  0  0  0  0
   -2.5189    2.9788    0.0000 C   0  0  0  0  0  0  0  0  0  0  0  0
   -1.2199    2.2288    0.0000 C   0  0  0  0  0  0  0  0  0  0  0  0
    0.0792    2.9788    0.0000 N   0  0  0  0  0  0  0  0  0  0  0  0
    0.0792    4.4788    0.0000 C   0  0  0  0  0  0  0  0  0  0  0  0
    1.3782    5.2288    0.0000 N   0  0  0  0  0  0  0  0  0  0  0  0
    2.6771    4.4788    0.0000 C   0  0  0  0  0  0  0  0  0  0  0  0
    3.9762    5.2288    0.0000 C   0  0  0  0  0  0  0  0  0  0  0  0
    5.2752    4.4788    0.0000 C   0  0  0  0  0  0  0  0  0  0  0  0
    5.2752    2.9788    0.0000 C   0  0  0  0  0  0  0  0  0  0  0  0
    6.5743    2.2288    0.0000 N   0  0  0  0  0  0  0  0  0  0  0  0
    3.9762    2.2288    0.0000 C   0  0  0  0  0  0  0  0  0  0  0  0
    2.6771    2.9788    0.0000 C   0  0  0  0  0  0  0  0  0  0  0  0
    1.3782    2.2288    0.0000 C   0  0  0  0  0  0  0  0  0  0  0  0
    1.3782    0.7288    0.0000 O   0  0  0  0  0  0  0  0  0  0  0  0
   -1.2199    5.2288    0.0000 C   0  0  0  0  0  0  0  0  0  0  0  0
   -1.2199    6.7288    0.0000 F   0  0  0  0  0  0  0  0  0  0  0  0
  1  2  1  0  0  0  0
  3  2  2  0  0  0  0
  2  7  1  0  0  0  0
  4  3  1  0  0  0  0
  5  4  2  0  0  0  0
  6  5  1  0  0  0  0
  7  6  2  0  0  0  0
  7  8  1  0  0  0  0
  9  8  1  0  0  0  0
  8 18  1  0  0  0  0
 10  9  2  0  0  0  0
  9 20  1  0  0  0  0
 11 10  1  0  0  0  0
 12 11  2  0  0  0  0
 11 17  1  0  0  0  0
 13 12  1  0  0  0  0
 14 13  2  0  0  0  0
 14 15  1  0  0  0  0
 16 14  1  0  0  0  0
 17 16  2  0  0  0  0
 18 17  1  0  0  0  0
 18 19  2  0  0  0  0
 20 21  1  0  0  0  0
M  END
> <Inchi_key>
VDOSWXIDETXFET-UHFFFAOYSA-N

> <Source>
Mulliner

> <ID>
HT3250

> <H_MFHB>
0

> <CAS>


> <Cholestasis>


> <Name>


> <Class>
0

$$$$