

  -INDIGO-08031710012D

 21 24  0  0  0  0  0  0  0  0999 V2000
   -1.6132   -5.2116    0.0000 C   0  0  0  0  0  0  0  0  0  0  0  0
   -1.1304   -3.7914    0.0000 C   0  0  0  0  0  0  0  0  0  0  0  0
   -2.6111   -4.0320    0.0000 O   0  0  0  0  0  0  0  0  0  0  0  0
   -1.2932   -2.3003    0.0000 C   0  0  0  0  0  0  0  0  0  0  0  0
    0.0746   -1.6847    0.0000 C   0  0  0  0  0  0  0  0  0  0  0  0
    1.0827   -2.7954    0.0000 C   0  0  0  0  0  0  0  0  0  0  0  0
    2.5827   -2.7894    0.0000 C   0  0  0  0  0  0  0  0  0  0  0  0
    3.3275   -1.4874    0.0000 C   0  0  0  0  0  0  0  0  0  0  0  0
    4.8275   -1.4815    0.0000 C   0  0  0  0  0  0  0  0  0  0  0  0
    5.5827   -2.7775    0.0000 C   0  0  0  0  0  0  0  0  0  0  0  0
    7.0828   -2.7715    0.0000 C   0  0  0  0  0  0  0  0  0  0  0  0
    7.8378   -4.0676    0.0000 C   0  0  0  0  0  0  0  0  0  0  0  0
    9.3378   -4.0616    0.0000 O   0  0  0  0  0  0  0  0  0  0  0  0
    7.0930   -5.3696    0.0000 C   0  0  0  0  0  0  0  0  0  0  0  0
    5.5930   -5.3756    0.0000 C   0  0  0  0  0  0  0  0  0  0  0  0
    4.8379   -4.0795    0.0000 C   0  0  0  0  0  0  0  0  0  0  0  0
    3.3379   -4.0855    0.0000 C   0  0  0  0  0  0  0  0  0  0  0  0
    2.5931   -5.3875    0.0000 C   0  0  0  0  0  0  0  0  0  0  0  0
    1.0931   -5.3935    0.0000 C   0  0  0  0  0  0  0  0  0  0  0  0
    0.3379   -4.0974    0.0000 C   0  0  0  0  0  0  0  0  0  0  0  0
   -0.5176   -5.3296    0.0000 C   0  0  0  0  0  0  0  0  0  0  0  0
  1  2  1  0  0  0  0
  2  3  1  0  0  0  0
  4  2  1  0  0  0  0
  2 20  1  0  0  0  0
  5  4  1  0  0  0  0
  6  5  1  0  0  0  0
  7  6  1  0  0  0  0
  6 20  1  0  0  0  0
  8  7  1  0  0  0  0
  7 17  1  0  0  0  0
  9  8  1  0  0  0  0
 10  9  1  0  0  0  0
 11 10  2  0  0  0  0
 10 16  1  0  0  0  0
 12 11  1  0  0  0  0
 12 13  2  0  0  0  0
 14 12  1  0  0  0  0
 15 14  1  0  0  0  0
 16 15  1  0  0  0  0
 17 16  1  0  0  0  0
 18 17  1  0  0  0  0
 19 18  1  0  0  0  0
 20 19  1  0  0  0  0
 20 21  1  0  0  0  0
M  END
> <Inchi_key>
ZXSWTMLNIIZPET-UHFFFAOYSA-N

> <Source>
Mulliner

> <ID>
HT3291

> <H_MFHB>
0

> <CAS>
514-61-4

> <Cholestasis>


> <Name>


> <Class>
0


$$$$