
  -INDIGO-08031710012D

 18 19  0  0  0  0  0  0  0  0999 V2000
    3.8236   -3.8236    0.0000 O   0  0  0  0  0  0  0  0  0  0  0  0
    3.8236   -2.3236    0.0000 C   0  0  0  0  0  0  0  0  0  0  0  0
    2.5245   -1.5736    0.0000 O   0  0  0  0  0  0  0  0  0  0  0  0
    1.2255   -2.3236    0.0000 O   0  0  0  0  0  0  0  0  0  0  0  0
   -0.0736   -1.5736    0.0000 C   0  0  0  0  0  0  0  0  0  0  0  0
   -0.0736   -0.0736    0.0000 O   0  0  0  0  0  0  0  0  0  0  0  0
   -1.3727   -2.3236    0.0000 C   0  0  0  0  0  0  0  0  0  0  0  0
   -2.6716   -1.5736    0.0000 C   0  0  0  0  0  0  0  0  0  0  0  0
   -3.9707   -2.3236    0.0000 C   0  0  0  0  0  0  0  0  0  0  0  0
   -3.9707   -3.8236    0.0000 C   0  0  0  0  0  0  0  0  0  0  0  0
   -2.6716   -4.5736    0.0000 C   0  0  0  0  0  0  0  0  0  0  0  0
   -1.3727   -3.8236    0.0000 C   0  0  0  0  0  0  0  0  0  0  0  0
    5.1227   -1.5736    0.0000 C   0  0  0  0  0  0  0  0  0  0  0  0
    5.1227   -0.0736    0.0000 C   0  0  0  0  0  0  0  0  0  0  0  0
    6.4216    0.6764    0.0000 C   0  0  0  0  0  0  0  0  0  0  0  0
    7.7207   -0.0736    0.0000 C   0  0  0  0  0  0  0  0  0  0  0  0
    7.7207   -1.5736    0.0000 C   0  0  0  0  0  0  0  0  0  0  0  0
    6.4216   -2.3236    0.0000 C   0  0  0  0  0  0  0  0  0  0  0  0
  1  2  2  0  0  0  0
  2  3  1  0  0  0  0
  2 13  1  0  0  0  0
  3  4  1  0  0  0  0
  4  5  1  0  0  0  0
  5  6  2  0  0  0  0
  5  7  1  0  0  0  0
  8  7  2  0  0  0  0
  7 12  1  0  0  0  0
  9  8  1  0  0  0  0
 10  9  2  0  0  0  0
 11 10  1  0  0  0  0
 12 11  2  0  0  0  0
 14 13  2  0  0  0  0
 13 18  1  0  0  0  0
 15 14  1  0  0  0  0
 16 15  2  0  0  0  0
 17 16  1  0  0  0  0
 18 17  2  0  0  0  0
M  END
> <Inchi_key>
OMPJBNCRMGITSC-UHFFFAOYSA-N

> <Source>
Mulliner , Kotsampasakou

> <ID>
EK0057;HT0252

> <H_MFHB>
0

> <CAS>


> <Cholestasis>
0

> <Name>
benzoyl peroxide

> <Class>
0

$$$$