
  -INDIGO-08031710012D

 19 19  0  0  0  0  0  0  0  0999 V2000
    1.8837    7.0297    0.0000 C   0  0  0  0  0  0  0  0  0  0  0  0
    3.1826    6.2798    0.0000 N   0  0  0  0  0  0  0  0  0  0  0  0
    4.4818    7.0297    0.0000 C   0  0  0  0  0  0  0  0  0  0  0  0
    3.1826    4.7798    0.0000 C   0  0  0  0  0  0  0  0  0  0  0  0
    4.4818    4.0297    0.0000 C   0  0  0  0  0  0  0  0  0  0  0  0
    4.4818    2.5297    0.0000 C   0  0  0  0  0  0  0  0  0  0  0  0
    5.7807    1.7798    0.0000 C   0  0  0  0  0  0  0  0  0  0  0  0
    7.0797    2.5297    0.0000 C   0  0  0  0  0  0  0  0  0  0  0  0
    8.3788    1.7798    0.0000 C   0  0  0  0  0  0  0  0  0  0  0  0
    9.6778    2.5297    0.0000 C   0  0  0  0  0  0  0  0  0  0  0  0
   10.9769    1.7798    0.0000 Br  0  0  0  0  0  0  0  0  0  0  0  0
    5.7807    0.2798    0.0000 C   0  0  0  0  0  0  0  0  0  0  0  0
    7.0797   -0.4703    0.0000 C   0  0  0  0  0  0  0  0  0  0  0  0
    3.1826    1.7798    0.0000 C   0  0  0  0  0  0  0  0  0  0  0  0
    1.8837    2.5297    0.0000 C   0  0  0  0  0  0  0  0  0  0  0  0
    0.5846    1.7798    0.0000 C   0  0  0  0  0  0  0  0  0  0  0  0
    0.5846    0.2798    0.0000 C   0  0  0  0  0  0  0  0  0  0  0  0
    1.8837   -0.4703    0.0000 C   0  0  0  0  0  0  0  0  0  0  0  0
    3.1826    0.2798    0.0000 N   0  0  0  0  0  0  0  0  0  0  0  0
  1  2  1  0  0  0  0
  2  3  1  0  0  0  0
  2  4  1  0  0  0  0
  4  5  1  0  0  0  0
  5  6  1  0  0  0  0
  6  7  1  0  0  0  0
  6 14  1  0  0  0  0
  7  8  2  0  0  0  0
  7 12  1  0  0  0  0
  8  9  1  0  0  0  0
  9 10  2  0  0  0  0
 10 11  1  0  0  0  0
 12 13  2  0  0  0  0
 15 14  2  0  0  0  0
 14 19  1  0  0  0  0
 16 15  1  0  0  0  0
 17 16  2  0  0  0  0
 18 17  1  0  0  0  0
 19 18  2  0  0  0  0
M  END
> <Inchi_key>
ZJNIYHNONKDUEV-HPIZBCMHSA-N

> <Source>
Mulliner

> <ID>
HT3466

> <H_MFHB>
0

> <CAS>


> <Cholestasis>


> <Name>


> <Class>
0

$$$$