

  -INDIGO-08031710012D

 21 22  0  0  0  0  0  0  0  0999 V2000
   -1.1023   -3.1854    0.0000 C   0  0  0  0  0  0  0  0  0  0  0  0
    0.1966   -2.4354    0.0000 O   0  0  0  0  0  0  0  0  0  0  0  0
    1.4958   -3.1854    0.0000 C   0  0  0  0  0  0  0  0  0  0  0  0
    1.4958   -4.6854    0.0000 N   0  0  0  0  0  0  0  0  0  0  0  0
    2.7949   -5.4354    0.0000 C   0  0  0  0  0  0  0  0  0  0  0  0
    4.0938   -4.6854    0.0000 N   0  0  0  0  0  0  0  0  0  0  0  0
    4.0938   -3.1854    0.0000 C   0  0  0  0  0  0  0  0  0  0  0  0
    5.3929   -2.4354    0.0000 N   0  0  0  0  0  0  0  0  0  0  0  0
    6.6919   -3.1854    0.0000 S   0  0  0  0  0  0  0  0  0  0  0  0
    7.4419   -1.8864    0.0000 O   0  0  0  0  0  0  0  0  0  0  0  0
    5.9418   -4.4844    0.0000 O   0  0  0  0  0  0  0  0  0  0  0  0
    7.9908   -3.9354    0.0000 C   0  0  0  0  0  0  0  0  0  0  0  0
    9.2899   -3.1854    0.0000 C   0  0  0  0  0  0  0  0  0  0  0  0
   10.5891   -3.9354    0.0000 C   0  0  0  0  0  0  0  0  0  0  0  0
   10.5891   -5.4354    0.0000 C   0  0  0  0  0  0  0  0  0  0  0  0
   11.8880   -6.1854    0.0000 N   0  0  0  0  0  0  0  0  0  0  0  0
    9.2899   -6.1854    0.0000 C   0  0  0  0  0  0  0  0  0  0  0  0
    7.9908   -5.4354    0.0000 C   0  0  0  0  0  0  0  0  0  0  0  0
    2.7949   -2.4354    0.0000 C   0  0  0  0  0  0  0  0  0  0  0  0
    2.7949   -0.9354    0.0000 O   0  0  0  0  0  0  0  0  0  0  0  0
    1.4958   -0.1854    0.0000 C   0  0  0  0  0  0  0  0  0  0  0  0
  1  2  1  0  0  0  0
  2  3  1  0  0  0  0
  4  3  2  0  0  0  0
  3 19  1  0  0  0  0
  5  4  1  0  0  0  0
  6  5  2  0  0  0  0
  7  6  1  0  0  0  0
  7  8  1  0  0  0  0
 19  7  2  0  0  0  0
  8  9  1  0  0  0  0
  9 10  2  0  0  0  0
  9 11  2  0  0  0  0
  9 12  1  0  0  0  0
 13 12  2  0  0  0  0
 12 18  1  0  0  0  0
 14 13  1  0  0  0  0
 15 14  2  0  0  0  0
 15 16  1  0  0  0  0
 17 15  1  0  0  0  0
 18 17  2  0  0  0  0
 19 20  1  0  0  0  0
 20 21  1  0  0  0  0
M  END
> <Inchi_key>
PJSFRIWCGOHTNF-UHFFFAOYSA-N

> <Source>
Mulliner , Kotsampasakou

> <ID>
EK0494;HT1939

> <H_MFHB>
0

> <CAS>


> <Cholestasis>
0

> <Name>
sulfadoxine

> <Class>
0


$$$$