
  -INDIGO-08031710012D

 30 33  0  0  0  0  0  0  0  0999 V2000
    0.0000   -6.0622    0.0000 C   0  0  0  0  0  0  0  0  0  0  0  0
    1.4999   -6.0622    0.0000 N   0  0  0  0  0  0  0  0  0  0  0  0
    2.2500   -7.3612    0.0000 C   0  0  0  0  0  0  0  0  0  0  0  0
    2.2500   -4.7632    0.0000 S   0  0  0  0  0  0  0  0  0  0  0  0
    3.5489   -5.5131    0.0000 O   0  0  0  0  0  0  0  0  0  0  0  0
    0.9510   -4.0130    0.0000 O   0  0  0  0  0  0  0  0  0  0  0  0
    3.0000   -3.4641    0.0000 C   0  0  0  0  0  0  0  0  0  0  0  0
    2.2500   -2.1651    0.0000 C   0  0  0  0  0  0  0  0  0  0  0  0
    3.0000   -0.8659    0.0000 C   0  0  0  0  0  0  0  0  0  0  0  0
    4.4999   -0.8659    0.0000 C   0  0  0  0  0  0  0  0  0  0  0  0
    5.2500    0.4329    0.0000 S   0  0  0  0  0  0  0  0  0  0  0  0
    6.7499    0.4329    0.0000 C   0  0  0  0  0  0  0  0  0  0  0  0
    7.5000    1.7321    0.0000 C   0  0  0  0  0  0  0  0  0  0  0  0
    9.0001    1.7321    0.0000 C   0  0  0  0  0  0  0  0  0  0  0  0
    9.7499    0.4329    0.0000 C   0  0  0  0  0  0  0  0  0  0  0  0
    9.0001   -0.8659    0.0000 C   0  0  0  0  0  0  0  0  0  0  0  0
    7.5000   -0.8659    0.0000 C   0  0  0  0  0  0  0  0  0  0  0  0
    6.7499   -2.1651    0.0000 N   0  0  0  0  0  0  0  0  0  0  0  0
    7.5000   -3.4641    0.0000 C   0  0  0  0  0  0  0  0  0  0  0  0
    9.0001   -3.4641    0.0000 C   0  0  0  0  0  0  0  0  0  0  0  0
    9.7499   -4.7632    0.0000 C   0  0  0  0  0  0  0  0  0  0  0  0
   11.2501   -4.7632    0.0000 N   0  0  0  0  0  0  0  0  0  0  0  0
   11.9999   -6.0622    0.0000 C   0  0  0  0  0  0  0  0  0  0  0  0
   13.5000   -6.0622    0.0000 C   0  0  0  0  0  0  0  0  0  0  0  0
   14.2501   -4.7632    0.0000 N   0  0  0  0  0  0  0  0  0  0  0  0
   15.7500   -4.7632    0.0000 C   0  0  0  0  0  0  0  0  0  0  0  0
   13.5000   -3.4641    0.0000 C   0  0  0  0  0  0  0  0  0  0  0  0
   11.9999   -3.4641    0.0000 C   0  0  0  0  0  0  0  0  0  0  0  0
    5.2500   -2.1651    0.0000 C   0  0  0  0  0  0  0  0  0  0  0  0
    4.4999   -3.4641    0.0000 C   0  0  0  0  0  0  0  0  0  0  0  0
  1  2  1  0  0  0  0
  2  3  1  0  0  0  0
  2  4  1  0  0  0  0
  4  5  2  0  0  0  0
  4  6  2  0  0  0  0
  4  7  1  0  0  0  0
  8  7  2  0  0  0  0
  7 30  1  0  0  0  0
  9  8  1  0  0  0  0
 10  9  2  0  0  0  0
 11 10  1  0  0  0  0
 10 29  1  0  0  0  0
 12 11  1  0  0  0  0
 13 12  2  0  0  0  0
 12 17  1  0  0  0  0
 14 13  1  0  0  0  0
 15 14  2  0  0  0  0
 16 15  1  0  0  0  0
 17 16  2  0  0  0  0
 18 17  1  0  0  0  0
 18 19  1  0  0  0  0
 29 18  1  0  0  0  0
 19 20  1  0  0  0  0
 20 21  1  0  0  0  0
 21 22  1  0  0  0  0
 23 22  1  0  0  0  0
 22 28  1  0  0  0  0
 24 23  1  0  0  0  0
 25 24  1  0  0  0  0
 25 26  1  0  0  0  0
 27 25  1  0  0  0  0
 28 27  1  0  0  0  0
 30 29  2  0  0  0  0
M  END
> <Inchi_key>
VZYCZNZBPPHOFY-UHFFFAOYSA-N

> <Source>
Mulliner

> <ID>
HT2045

> <H_MFHB>
0

> <CAS>


> <Cholestasis>


> <Name>
thioproperazine

> <Class>
0

$$$$