

  -INDIGO-08031710012D

 12 11  0  0  0  0  0  0  0  0999 V2000
    0.1977   -5.0188    0.0000 C   0  0  0  0  0  0  0  0  0  0  0  0
    0.1977   -3.5188    0.0000 C   0  0  0  0  0  0  0  0  0  0  0  0
    1.4968   -2.7688    0.0000 C   0  0  0  0  0  0  0  0  0  0  0  0
    2.2467   -4.0679    0.0000 Br  0  0  0  0  0  0  0  0  0  0  0  0
    0.7467   -1.4698    0.0000 C   0  0  0  0  0  0  0  0  0  0  0  0
   -0.7533   -1.4698    0.0000 C   0  0  0  0  0  0  0  0  0  0  0  0
    2.7958   -2.0188    0.0000 C   0  0  0  0  0  0  0  0  0  0  0  0
    2.7958   -0.5188    0.0000 O   0  0  0  0  0  0  0  0  0  0  0  0
    4.0948   -2.7688    0.0000 N   0  0  0  0  0  0  0  0  0  0  0  0
    5.3937   -2.0188    0.0000 C   0  0  0  0  0  0  0  0  0  0  0  0
    5.3937   -0.5188    0.0000 O   0  0  0  0  0  0  0  0  0  0  0  0
    6.6929   -2.7688    0.0000 N   0  0  0  0  0  0  0  0  0  0  0  0
  1  2  1  0  0  0  0
  2  3  1  0  0  0  0
  3  4  1  0  0  0  0
  3  5  1  0  0  0  0
  3  7  1  0  0  0  0
  5  6  1  0  0  0  0
  7  8  2  0  0  0  0
  7  9  1  0  0  0  0
  9 10  1  0  0  0  0
 10 11  2  0  0  0  0
 10 12  1  0  0  0  0
M  END
> <Inchi_key>
OPNPQXLQERQBBV-UHFFFAOYSA-N

> <Source>
Mulliner

> <ID>
HT3036

> <H_MFHB>
0

> <CAS>


> <Cholestasis>


> <Name>


> <Class>
0


$$$$