

  -INDIGO-08031710012D

 26 28  0  0  0  0  0  0  0  0999 V2000
   -2.6291    8.0891    0.0000 O   0  0  0  0  0  0  0  0  0  0  0  0
   -3.9280    7.3392    0.0000 C   0  0  0  0  0  0  0  0  0  0  0  0
   -5.2271    8.0891    0.0000 O   0  0  0  0  0  0  0  0  0  0  0  0
   -3.9280    5.8392    0.0000 C   0  0  0  0  0  0  0  0  0  0  0  0
   -2.6291    5.0891    0.0000 N   0  0  0  0  0  0  0  0  0  0  0  0
   -1.3300    5.8392    0.0000 C   0  0  0  0  0  0  0  0  0  0  0  0
   -1.3300    7.3392    0.0000 O   0  0  0  0  0  0  0  0  0  0  0  0
   -0.0309    5.0891    0.0000 N   0  0  0  0  0  0  0  0  0  0  0  0
    1.2681    5.8392    0.0000 C   0  0  0  0  0  0  0  0  0  0  0  0
    2.5672    5.0891    0.0000 C   0  0  0  0  0  0  0  0  0  0  0  0
    2.5672    3.5891    0.0000 C   0  0  0  0  0  0  0  0  0  0  0  0
    3.8663    2.8392    0.0000 C   0  0  0  0  0  0  0  0  0  0  0  0
    5.1652    3.5891    0.0000 C   0  0  0  0  0  0  0  0  0  0  0  0
    6.4643    2.8392    0.0000 Br  0  0  0  0  0  0  0  0  0  0  0  0
    5.1652    5.0891    0.0000 C   0  0  0  0  0  0  0  0  0  0  0  0
    3.8663    5.8392    0.0000 C   0  0  0  0  0  0  0  0  0  0  0  0
    3.8663    7.3392    0.0000 F   0  0  0  0  0  0  0  0  0  0  0  0
   -0.0309    3.5891    0.0000 C   0  0  0  0  0  0  0  0  0  0  0  0
    1.2681    2.8392    0.0000 O   0  0  0  0  0  0  0  0  0  0  0  0
   -1.3300    2.8392    0.0000 C   0  0  0  0  0  0  0  0  0  0  0  0
   -1.3300    1.3392    0.0000 C   0  0  0  0  0  0  0  0  0  0  0  0
   -2.6291    0.5891    0.0000 C   0  0  0  0  0  0  0  0  0  0  0  0
   -3.9280    1.3392    0.0000 C   0  0  0  0  0  0  0  0  0  0  0  0
   -5.2271    0.5891    0.0000 Cl  0  0  0  0  0  0  0  0  0  0  0  0
   -3.9280    2.8392    0.0000 C   0  0  0  0  0  0  0  0  0  0  0  0
   -2.6291    3.5891    0.0000 C   0  0  0  0  0  0  0  0  0  0  0  0
  1  2  1  0  0  0  0
  2  3  2  0  0  0  0
  2  4  1  0  0  0  0
  4  5  1  0  0  0  0
  6  5  1  0  0  0  0
  5 26  1  0  0  0  0
  6  7  2  0  0  0  0
  8  6  1  0  0  0  0
  8  9  1  0  0  0  0
 18  8  1  0  0  0  0
  9 10  1  0  0  0  0
 11 10  2  0  0  0  0
 10 16  1  0  0  0  0
 12 11  1  0  0  0  0
 13 12  2  0  0  0  0
 13 14  1  0  0  0  0
 15 13  1  0  0  0  0
 16 15  2  0  0  0  0
 16 17  1  0  0  0  0
 18 19  2  0  0  0  0
 20 18  1  0  0  0  0
 21 20  1  0  0  0  0
 20 26  2  0  0  0  0
 22 21  2  0  0  0  0
 23 22  1  0  0  0  0
 23 24  1  0  0  0  0
 25 23  2  0  0  0  0
 26 25  1  0  0  0  0
M  END
> <Inchi_key>
SXONDGSPUVNZLO-UHFFFAOYSA-N

> <Source>
Mulliner

> <ID>
HT2210

> <H_MFHB>
0

> <CAS>
112733-06-9

> <Cholestasis>


> <Name>
zenarestat

> <Class>
0


$$$$