
  -INDIGO-08031710012D

 24 23  0  0  0  0  0  0  0  0999 V2000
   -0.7500   -1.2990    0.0000 C   0  0  0  0  0  0  0  0  0  0  0  0
   -0.0000   -2.5981    0.0000 C   0  0  0  0  0  0  0  0  0  0  0  0
    1.5001   -2.5981    0.0000 O   0  0  0  0  0  0  0  0  0  0  0  0
    2.2500   -3.8972    0.0000 C   0  0  0  0  0  0  0  0  0  0  0  0
    3.7499   -3.8972    0.0000 C   0  0  0  0  0  0  0  0  0  0  0  0
    4.4999   -5.1963    0.0000 P   0  0  0  0  0  0  0  0  0  0  0  0
    3.7499   -6.4951    0.0000 C   0  0  0  0  0  0  0  0  0  0  0  0
    4.4999   -7.7942    0.0000 C   0  0  0  0  0  0  0  0  0  0  0  0
    3.7499   -9.0933    0.0000 O   0  0  0  0  0  0  0  0  0  0  0  0
    4.4999  -10.3922    0.0000 C   0  0  0  0  0  0  0  0  0  0  0  0
    3.7499  -11.6913    0.0000 C   0  0  0  0  0  0  0  0  0  0  0  0
    6.0000   -5.1963    0.0000 C   0  0  0  0  0  0  0  0  0  0  0  0
    6.7500   -3.8972    0.0000 C   0  0  0  0  0  0  0  0  0  0  0  0
    8.2501   -3.8972    0.0000 P   0  0  0  0  0  0  0  0  0  0  0  0
    9.0001   -2.5981    0.0000 C   0  0  0  0  0  0  0  0  0  0  0  0
    8.2501   -1.2990    0.0000 C   0  0  0  0  0  0  0  0  0  0  0  0
    9.0001   -0.0001    0.0000 O   0  0  0  0  0  0  0  0  0  0  0  0
    8.2501    1.2990    0.0000 C   0  0  0  0  0  0  0  0  0  0  0  0
    9.0001    2.5981    0.0000 C   0  0  0  0  0  0  0  0  0  0  0  0
    9.0001   -5.1963    0.0000 C   0  0  0  0  0  0  0  0  0  0  0  0
   10.5000   -5.1963    0.0000 C   0  0  0  0  0  0  0  0  0  0  0  0
   11.2499   -6.4951    0.0000 O   0  0  0  0  0  0  0  0  0  0  0  0
   12.7500   -6.4951    0.0000 C   0  0  0  0  0  0  0  0  0  0  0  0
   13.5000   -7.7942    0.0000 C   0  0  0  0  0  0  0  0  0  0  0  0
  1  2  1  0  0  0  0
  2  3  1  0  0  0  0
  3  4  1  0  0  0  0
  4  5  1  0  0  0  0
  5  6  1  0  0  0  0
  6  7  1  0  0  0  0
  6 12  1  0  0  0  0
  7  8  1  0  0  0  0
  8  9  1  0  0  0  0
  9 10  1  0  0  0  0
 10 11  1  0  0  0  0
 12 13  1  0  0  0  0
 13 14  1  0  0  0  0
 14 15  1  0  0  0  0
 14 20  1  0  0  0  0
 15 16  1  0  0  0  0
 16 17  1  0  0  0  0
 17 18  1  0  0  0  0
 18 19  1  0  0  0  0
 20 21  1  0  0  0  0
 21 22  1  0  0  0  0
 22 23  1  0  0  0  0
 23 24  1  0  0  0  0
M  END
> <Inchi_key>
QCWJONLQSHEGEJ-UHFFFAOYSA-N

> <Source>
Mulliner

> <ID>
HT2031

> <H_MFHB>
0

> <CAS>


> <Cholestasis>


> <Name>
tetrofosmin

> <Class>
0

$$$$