

  -INDIGO-08031710012D

 15 15  0  0  0  0  0  0  0  0999 V2000
    8.8631    2.3749    0.0000 C   0  0  0  0  0  0  0  0  0  0  0  0
    7.5641    1.6249    0.0000 O   0  0  0  0  0  0  0  0  0  0  0  0
    6.2652    2.3749    0.0000 C   0  0  0  0  0  0  0  0  0  0  0  0
    6.2652    3.8749    0.0000 C   0  0  0  0  0  0  0  0  0  0  0  0
    4.9661    4.6249    0.0000 C   0  0  0  0  0  0  0  0  0  0  0  0
    3.6670    3.8749    0.0000 C   0  0  0  0  0  0  0  0  0  0  0  0
    2.3679    4.6249    0.0000 O   0  0  0  0  0  0  0  0  0  0  0  0
    2.3679    6.1249    0.0000 C   0  0  0  0  0  0  0  0  0  0  0  0
    3.6670    2.3749    0.0000 C   0  0  0  0  0  0  0  0  0  0  0  0
    4.9661    1.6249    0.0000 C   0  0  0  0  0  0  0  0  0  0  0  0
    2.3679    1.6249    0.0000 C   0  0  0  0  0  0  0  0  0  0  0  0
    1.0689    2.3749    0.0000 O   0  0  0  0  0  0  0  0  0  0  0  0
    2.3679    0.1249    0.0000 C   0  0  0  0  0  0  0  0  0  0  0  0
    1.0689   -0.6251    0.0000 C   0  0  0  0  0  0  0  0  0  0  0  0
    3.6670   -0.6251    0.0000 N   0  0  0  0  0  0  0  0  0  0  0  0
  1  2  1  0  0  0  0
  2  3  1  0  0  0  0
  4  3  2  0  0  0  0
  3 10  1  0  0  0  0
  5  4  1  0  0  0  0
  6  5  2  0  0  0  0
  6  7  1  0  0  0  0
  9  6  1  0  0  0  0
  7  8  1  0  0  0  0
 10  9  2  0  0  0  0
  9 11  1  0  0  0  0
 11 12  1  0  0  0  0
 11 13  1  0  0  0  0
 13 14  1  0  0  0  0
 13 15  1  0  0  0  0
M  END
> <Inchi_key>
WJAJPNHVVFWKKL-UHFFFAOYSA-N

> <Source>
Mulliner , Kotsampasakou

> <ID>
EK0334;HT1349

> <H_MFHB>
0

> <CAS>


> <Cholestasis>
0

> <Name>
methoxamine;methoxamine hcl

> <Class>
0


$$$$