

  -INDIGO-08031710012D

 22 23  0  0  0  0  0  0  0  0999 V2000
   -0.0736    0.0736    0.0000 O   0  0  0  0  0  0  0  0  0  0  0  0
   -0.0736    1.5736    0.0000 C   0  0  0  0  0  0  0  0  0  0  0  0
    1.2255    2.3236    0.0000 C   0  0  0  0  0  0  0  0  0  0  0  0
    1.2255    3.8236    0.0000 C   0  0  0  0  0  0  0  0  0  0  0  0
   -0.0736    4.5737    0.0000 C   0  0  0  0  0  0  0  0  0  0  0  0
   -0.0736    6.0736    0.0000 Cl  0  0  0  0  0  0  0  0  0  0  0  0
   -1.3727    3.8236    0.0000 C   0  0  0  0  0  0  0  0  0  0  0  0
   -1.3727    2.3236    0.0000 C   0  0  0  0  0  0  0  0  0  0  0  0
   -2.6716    1.5736    0.0000 N   0  0  0  0  0  0  0  0  0  0  0  0
   -2.6716    0.0736    0.0000 O   0  0  0  0  0  0  0  0  0  0  0  0
   -3.9707    2.3236    0.0000 O   0  0  0  0  0  0  0  0  0  0  0  0
    2.5245    1.5736    0.0000 C   0  0  0  0  0  0  0  0  0  0  0  0
    2.5245    0.0736    0.0000 C   0  0  0  0  0  0  0  0  0  0  0  0
    3.8236   -0.6765    0.0000 C   0  0  0  0  0  0  0  0  0  0  0  0
    3.8236   -2.1764    0.0000 Cl  0  0  0  0  0  0  0  0  0  0  0  0
    5.1227    0.0736    0.0000 C   0  0  0  0  0  0  0  0  0  0  0  0
    5.1227    1.5736    0.0000 C   0  0  0  0  0  0  0  0  0  0  0  0
    3.8236    2.3236    0.0000 C   0  0  0  0  0  0  0  0  0  0  0  0
    3.8236    3.8236    0.0000 O   0  0  0  0  0  0  0  0  0  0  0  0
    6.4216    2.3236    0.0000 N   0  0  0  0  0  0  0  0  0  0  0  0
    6.4216    3.8236    0.0000 O   0  0  0  0  0  0  0  0  0  0  0  0
    7.7207    1.5736    0.0000 O   0  0  0  0  0  0  0  0  0  0  0  0
  1  2  1  0  0  0  0
  3  2  2  0  0  0  0
  2  8  1  0  0  0  0
  4  3  1  0  0  0  0
  3 12  1  0  0  0  0
  5  4  2  0  0  0  0
  5  6  1  0  0  0  0
  7  5  1  0  0  0  0
  8  7  2  0  0  0  0
  8  9  1  0  0  0  0
  9 10  2  0  0  0  0
  9 11  1  0  0  0  0
 13 12  2  0  0  0  0
 12 18  1  0  0  0  0
 14 13  1  0  0  0  0
 14 15  1  0  0  0  0
 16 14  2  0  0  0  0
 17 16  1  0  0  0  0
 18 17  2  0  0  0  0
 17 20  1  0  0  0  0
 18 19  1  0  0  0  0
 20 21  2  0  0  0  0
 20 22  1  0  0  0  0
M  CHG  4   9   1  11  -1  20   1  22  -1
M  END
> <Inchi_key>
XULACPAEUUWKFX-UHFFFAOYSA-N

> <Source>
Mulliner

> <ID>
HT1485

> <H_MFHB>
0

> <CAS>
10331-57-4

> <Cholestasis>


> <Name>
niclofolan

> <Class>
0


$$$$