
  -INDIGO-08031710012D

 18 18  0  0  0  0  0  0  0  0999 V2000
   13.5919    3.6419    0.0000 C   0  0  0  0  0  0  0  0  0  0  0  0
   12.2928    2.8919    0.0000 C   0  0  0  0  0  0  0  0  0  0  0  0
   12.2928    1.3919    0.0000 C   0  0  0  0  0  0  0  0  0  0  0  0
   10.9939    3.6419    0.0000 N   0  0  0  0  0  0  0  0  0  0  0  0
    9.6948    2.8919    0.0000 C   0  0  0  0  0  0  0  0  0  0  0  0
    8.3957    3.6419    0.0000 C   0  0  0  0  0  0  0  0  0  0  0  0
    8.3957    5.1419    0.0000 O   0  0  0  0  0  0  0  0  0  0  0  0
    7.0967    2.8919    0.0000 C   0  0  0  0  0  0  0  0  0  0  0  0
    5.7976    3.6419    0.0000 O   0  0  0  0  0  0  0  0  0  0  0  0
    4.4985    2.8919    0.0000 C   0  0  0  0  0  0  0  0  0  0  0  0
    4.4985    1.3919    0.0000 C   0  0  0  0  0  0  0  0  0  0  0  0
    3.1996    0.6419    0.0000 C   0  0  0  0  0  0  0  0  0  0  0  0
    1.9005    1.3919    0.0000 C   0  0  0  0  0  0  0  0  0  0  0  0
    1.9005    2.8919    0.0000 C   0  0  0  0  0  0  0  0  0  0  0  0
    3.1996    3.6419    0.0000 C   0  0  0  0  0  0  0  0  0  0  0  0
    3.1996    5.1419    0.0000 C   0  0  0  0  0  0  0  0  0  0  0  0
    1.9005    5.8919    0.0000 C   0  0  0  0  0  0  0  0  0  0  0  0
    1.9005    7.3919    0.0000 C   0  0  0  0  0  0  0  0  0  0  0  0
  1  2  1  0  0  0  0
  2  3  1  0  0  0  0
  2  4  1  0  0  0  0
  4  5  1  0  0  0  0
  5  6  1  0  0  0  0
  6  7  1  0  0  0  0
  6  8  1  0  0  0  0
  8  9  1  0  0  0  0
  9 10  1  0  0  0  0
 11 10  2  0  0  0  0
 10 15  1  0  0  0  0
 12 11  1  0  0  0  0
 13 12  2  0  0  0  0
 14 13  1  0  0  0  0
 15 14  2  0  0  0  0
 15 16  1  0  0  0  0
 16 17  1  0  0  0  0
 17 18  2  0  0  0  0
M  END
> <Inchi_key>
PAZJSJFMUHDSTF-UHFFFAOYSA-N

> <Source>
Mulliner

> <ID>
HT0114

> <H_MFHB>
0

> <CAS>


> <Cholestasis>


> <Name>
alprenolol

> <Class>
0

$$$$