

  -INDIGO-08031710012D

 25 27  0  0  0  0  0  0  0  0999 V2000
   13.7248   -1.3773    0.0000 Cl  0  0  0  0  0  0  0  0  0  0  0  0
   12.2248   -1.3773    0.0000 C   0  0  0  0  0  0  0  0  0  0  0  0
   11.4748   -0.0784    0.0000 C   0  0  0  0  0  0  0  0  0  0  0  0
    9.9748   -0.0784    0.0000 C   0  0  0  0  0  0  0  0  0  0  0  0
    9.2248   -1.3773    0.0000 C   0  0  0  0  0  0  0  0  0  0  0  0
    7.7248   -1.3773    0.0000 C   0  0  0  0  0  0  0  0  0  0  0  0
    6.9748   -0.0784    0.0000 O   0  0  0  0  0  0  0  0  0  0  0  0
    5.4748   -0.0784    0.0000 C   0  0  0  0  0  0  0  0  0  0  0  0
    4.7248    1.2208    0.0000 C   0  0  0  0  0  0  0  0  0  0  0  0
    5.4748    2.5197    0.0000 N   0  0  0  0  0  0  0  0  0  0  0  0
    4.8647    3.8901    0.0000 C   0  0  0  0  0  0  0  0  0  0  0  0
    5.9793    4.8938    0.0000 C   0  0  0  0  0  0  0  0  0  0  0  0
    7.2785    4.1438    0.0000 N   0  0  0  0  0  0  0  0  0  0  0  0
    6.9666    2.6766    0.0000 C   0  0  0  0  0  0  0  0  0  0  0  0
    4.7248   -1.3773    0.0000 C   0  0  0  0  0  0  0  0  0  0  0  0
    5.4748   -2.6765    0.0000 C   0  0  0  0  0  0  0  0  0  0  0  0
    4.7248   -3.9754    0.0000 C   0  0  0  0  0  0  0  0  0  0  0  0
    3.2248   -3.9754    0.0000 C   0  0  0  0  0  0  0  0  0  0  0  0
    2.4748   -5.2744    0.0000 Cl  0  0  0  0  0  0  0  0  0  0  0  0
    2.4748   -2.6765    0.0000 C   0  0  0  0  0  0  0  0  0  0  0  0
    3.2248   -1.3773    0.0000 C   0  0  0  0  0  0  0  0  0  0  0  0
    2.4748   -0.0784    0.0000 Cl  0  0  0  0  0  0  0  0  0  0  0  0
    9.9748   -2.6765    0.0000 C   0  0  0  0  0  0  0  0  0  0  0  0
    9.2248   -3.9754    0.0000 Cl  0  0  0  0  0  0  0  0  0  0  0  0
   11.4748   -2.6765    0.0000 C   0  0  0  0  0  0  0  0  0  0  0  0
  1  2  1  0  0  0  0
  3  2  2  0  0  0  0
  2 25  1  0  0  0  0
  4  3  1  0  0  0  0
  5  4  2  0  0  0  0
  5  6  1  0  0  0  0
 23  5  1  0  0  0  0
  6  7  1  0  0  0  0
  7  8  1  0  0  0  0
  8  9  1  0  0  0  0
  8 15  1  0  0  0  0
  9 10  1  0  0  0  0
 11 10  1  0  0  0  0
 10 14  1  0  0  0  0
 12 11  2  0  0  0  0
 13 12  1  0  0  0  0
 14 13  2  0  0  0  0
 16 15  2  0  0  0  0
 15 21  1  0  0  0  0
 17 16  1  0  0  0  0
 18 17  2  0  0  0  0
 18 19  1  0  0  0  0
 20 18  1  0  0  0  0
 21 20  2  0  0  0  0
 21 22  1  0  0  0  0
 23 24  1  0  0  0  0
 25 23  2  0  0  0  0
M  END
> <Inchi_key>
BYBLEWFAAKGYCD-UHFFFAOYSA-N

> <Source>
Mulliner , Kotsampasakou

> <ID>
EK0349;HT1392

> <H_MFHB>
0

> <CAS>
22832-87-7

> <Cholestasis>
0

> <Name>
miconazole;miconazole nitrate

> <Class>
0


$$$$