
  -INDIGO-08031710012D

 30 33  0  0  0  0  0  0  0  0999 V2000
   13.8996   -3.7245    0.0000 C   0  0  0  0  0  0  0  0  0  0  0  0
   12.6007   -2.9745    0.0000 C   0  0  0  0  0  0  0  0  0  0  0  0
   11.3015   -3.7245    0.0000 C   0  0  0  0  0  0  0  0  0  0  0  0
   10.0026   -2.9745    0.0000 N   0  0  0  0  0  0  0  0  0  0  0  0
   10.0026   -1.4743    0.0000 C   0  0  0  0  0  0  0  0  0  0  0  0
   11.3015   -0.7243    0.0000 C   0  0  0  0  0  0  0  0  0  0  0  0
   12.6007   -1.4743    0.0000 N   0  0  0  0  0  0  0  0  0  0  0  0
    8.7034   -3.7245    0.0000 C   0  0  0  0  0  0  0  0  0  0  0  0
    7.4043   -2.9745    0.0000 C   0  0  0  0  0  0  0  0  0  0  0  0
    6.1054   -3.7245    0.0000 C   0  0  0  0  0  0  0  0  0  0  0  0
    4.8062   -2.9745    0.0000 N   0  0  0  0  0  0  0  0  0  0  0  0
    3.5073   -3.7245    0.0000 C   0  0  0  0  0  0  0  0  0  0  0  0
    3.5073   -5.2244    0.0000 C   0  0  0  0  0  0  0  0  0  0  0  0
    2.2083   -5.9744    0.0000 C   0  0  0  0  0  0  0  0  0  0  0  0
    2.2083   -7.4744    0.0000 O   0  0  0  0  0  0  0  0  0  0  0  0
    0.9092   -5.2244    0.0000 O   0  0  0  0  0  0  0  0  0  0  0  0
    4.8062   -5.9744    0.0000 C   0  0  0  0  0  0  0  0  0  0  0  0
    4.8062   -7.4744    0.0000 O   0  0  0  0  0  0  0  0  0  0  0  0
    6.1054   -5.2244    0.0000 C   0  0  0  0  0  0  0  0  0  0  0  0
    7.4043   -5.9744    0.0000 C   0  0  0  0  0  0  0  0  0  0  0  0
    8.7034   -5.2244    0.0000 C   0  0  0  0  0  0  0  0  0  0  0  0
   10.0026   -5.9744    0.0000 F   0  0  0  0  0  0  0  0  0  0  0  0
    4.8062   -1.4743    0.0000 C   0  0  0  0  0  0  0  0  0  0  0  0
    6.1054   -0.7243    0.0000 C   0  0  0  0  0  0  0  0  0  0  0  0
    6.1054    0.7756    0.0000 C   0  0  0  0  0  0  0  0  0  0  0  0
    4.8062    1.5256    0.0000 C   0  0  0  0  0  0  0  0  0  0  0  0
    4.8062    3.0256    0.0000 F   0  0  0  0  0  0  0  0  0  0  0  0
    3.5073    0.7756    0.0000 C   0  0  0  0  0  0  0  0  0  0  0  0
    3.5073   -0.7243    0.0000 C   0  0  0  0  0  0  0  0  0  0  0  0
    2.2083   -1.4743    0.0000 F   0  0  0  0  0  0  0  0  0  0  0  0
  1  2  1  0  0  0  0
  3  2  1  0  0  0  0
  2  7  1  0  0  0  0
  4  3  1  0  0  0  0
  5  4  1  0  0  0  0
  4  8  1  0  0  0  0
  6  5  1  0  0  0  0
  7  6  1  0  0  0  0
  9  8  2  0  0  0  0
  8 21  1  0  0  0  0
 10  9  1  0  0  0  0
 11 10  1  0  0  0  0
 10 19  2  0  0  0  0
 12 11  1  0  0  0  0
 11 23  1  0  0  0  0
 13 12  2  0  0  0  0
 13 14  1  0  0  0  0
 17 13  1  0  0  0  0
 14 15  2  0  0  0  0
 14 16  1  0  0  0  0
 17 18  2  0  0  0  0
 19 17  1  0  0  0  0
 20 19  1  0  0  0  0
 21 20  2  0  0  0  0
 21 22  1  0  0  0  0
 24 23  2  0  0  0  0
 23 29  1  0  0  0  0
 25 24  1  0  0  0  0
 26 25  2  0  0  0  0
 26 27  1  0  0  0  0
 28 26  1  0  0  0  0
 29 28  2  0  0  0  0
 29 30  1  0  0  0  0
M  END
> <Inchi_key>
QKDHBVNJCZBTMR-UHFFFAOYSA-N

> <Source>
Mulliner

> <ID>
HT1996

> <H_MFHB>
0

> <CAS>
108319-06-8

> <Cholestasis>


> <Name>
temafloxacin

> <Class>
0

$$$$