

  -INDIGO-08031710012D

 16 16  0  0  0  0  0  0  0  0999 V2000
   -0.0172   -0.0644    0.0000 C   0  0  0  0  0  0  0  0  0  0  0  0
    1.2817   -0.8144    0.0000 C   0  0  0  0  0  0  0  0  0  0  0  0
    1.2817   -2.3144    0.0000 O   0  0  0  0  0  0  0  0  0  0  0  0
    2.5809   -0.0644    0.0000 N   0  0  0  0  0  0  0  0  0  0  0  0
    3.8800   -0.8144    0.0000 C   0  0  0  0  0  0  0  0  0  0  0  0
    3.8800   -2.3144    0.0000 C   0  0  0  0  0  0  0  0  0  0  0  0
    5.1789   -3.0644    0.0000 C   0  0  0  0  0  0  0  0  0  0  0  0
    6.4779   -2.3144    0.0000 C   0  0  0  0  0  0  0  0  0  0  0  0
    7.7770   -3.0644    0.0000 C   0  0  0  0  0  0  0  0  0  0  0  0
    9.0759   -2.3144    0.0000 N   0  0  0  0  0  0  0  0  0  0  0  0
   10.3750   -3.0644    0.0000 N   0  0  0  0  0  0  0  0  0  0  0  0
   11.6742   -2.3144    0.0000 C   0  0  0  0  0  0  0  0  0  0  0  0
   11.6742   -0.8144    0.0000 S   0  0  0  0  0  0  0  0  0  0  0  0
   12.9731   -3.0644    0.0000 N   0  0  0  0  0  0  0  0  0  0  0  0
    6.4779   -0.8144    0.0000 C   0  0  0  0  0  0  0  0  0  0  0  0
    5.1789   -0.0644    0.0000 C   0  0  0  0  0  0  0  0  0  0  0  0
  1  2  1  0  0  0  0
  2  3  2  0  0  0  0
  2  4  1  0  0  0  0
  4  5  1  0  0  0  0
  6  5  2  0  0  0  0
  5 16  1  0  0  0  0
  7  6  1  0  0  0  0
  8  7  2  0  0  0  0
  8  9  1  0  0  0  0
 15  8  1  0  0  0  0
  9 10  2  0  0  0  0
 10 11  1  0  0  0  0
 11 12  1  0  0  0  0
 12 13  2  0  0  0  0
 12 14  1  0  0  0  0
 16 15  2  0  0  0  0
M  END
> <Inchi_key>
SRVJKTDHMYAMHA-WUXMJOGZSA-N

> <Source>
Mulliner

> <ID>
HT2035

> <H_MFHB>
0

> <CAS>


> <Cholestasis>


> <Name>
thiacetazone;amithiozone

> <Class>
0


$$$$