

  -INDIGO-08031710012D

 30 32  0  0  0  0  0  0  0  0999 V2000
    3.3921   -4.7097    0.0000 C   0  0  0  0  0  0  0  0  0  0  0  0
    3.8674   -3.2868    0.0000 O   0  0  0  0  0  0  0  0  0  0  0  0
    2.8729   -2.1640    0.0000 C   0  0  0  0  0  0  0  0  0  0  0  0
    4.2911   -1.6749    0.0000 N   0  0  0  0  0  0  0  0  0  0  0  0
    5.4237   -2.6585    0.0000 C   0  0  0  0  0  0  0  0  0  0  0  0
    5.1382   -4.1311    0.0000 O   0  0  0  0  0  0  0  0  0  0  0  0
    6.8416   -2.1694    0.0000 C   0  0  0  0  0  0  0  0  0  0  0  0
    7.9742   -3.1530    0.0000 S   0  0  0  0  0  0  0  0  0  0  0  0
    9.3921   -2.6639    0.0000 C   0  0  0  0  0  0  0  0  0  0  0  0
   10.5247   -3.6474    0.0000 C   0  0  0  0  0  0  0  0  0  0  0  0
   11.6573   -4.6310    0.0000 N   0  0  0  0  0  0  0  0  0  0  0  0
    1.5777   -2.9203    0.0000 C   0  0  0  0  0  0  0  0  0  0  0  0
    0.8340   -4.2230    0.0000 S   0  0  0  0  0  0  0  0  0  0  0  0
   -0.6662   -4.2301    0.0000 C   0  0  0  0  0  0  0  0  0  0  0  0
   -1.4224   -2.9348    0.0000 C   0  0  0  0  0  0  0  0  0  0  0  0
   -0.6788   -1.6322    0.0000 C   0  0  0  0  0  0  0  0  0  0  0  0
    0.8212   -1.6249    0.0000 N   0  0  0  0  0  0  0  0  0  0  0  0
    2.1167   -0.8685    0.0000 C   0  0  0  0  0  0  0  0  0  0  0  0
    2.4980    0.5821    0.0000 O   0  0  0  0  0  0  0  0  0  0  0  0
   -1.4350   -0.3367    0.0000 C   0  0  0  0  0  0  0  0  0  0  0  0
   -0.6913    0.9659    0.0000 O   0  0  0  0  0  0  0  0  0  0  0  0
   -2.9349   -0.3441    0.0000 O   0  0  0  0  0  0  0  0  0  0  0  0
   -2.9224   -2.9421    0.0000 C   0  0  0  0  0  0  0  0  0  0  0  0
   -3.6660   -4.2448    0.0000 S   0  0  0  0  0  0  0  0  0  0  0  0
   -5.1660   -4.2521    0.0000 C   0  0  0  0  0  0  0  0  0  0  0  0
   -6.0536   -3.0428    0.0000 N   0  0  0  0  0  0  0  0  0  0  0  0
   -7.4779   -3.5133    0.0000 N   0  0  0  0  0  0  0  0  0  0  0  0
   -7.4706   -5.0133    0.0000 N   0  0  0  0  0  0  0  0  0  0  0  0
   -6.0419   -5.4699    0.0000 N   0  0  0  0  0  0  0  0  0  0  0  0
   -5.5712   -6.8942    0.0000 C   0  0  0  0  0  0  0  0  0  0  0  0
  1  2  1  0  0  0  0
  2  3  1  0  0  0  0
  3  4  1  0  0  0  0
 12  3  1  0  0  0  0
  3 18  1  0  0  0  0
  4  5  1  0  0  0  0
  5  6  2  0  0  0  0
  5  7  1  0  0  0  0
  7  8  1  0  0  0  0
  8  9  1  0  0  0  0
  9 10  1  0  0  0  0
 10 11  3  0  0  0  0
 13 12  1  0  0  0  0
 12 17  1  0  0  0  0
 14 13  1  0  0  0  0
 15 14  1  0  0  0  0
 16 15  2  0  0  0  0
 15 23  1  0  0  0  0
 17 16  1  0  0  0  0
 16 20  1  0  0  0  0
 18 17  1  0  0  0  0
 18 19  2  0  0  0  0
 20 21  2  0  0  0  0
 20 22  1  0  0  0  0
 23 24  1  0  0  0  0
 24 25  1  0  0  0  0
 26 25  2  0  0  0  0
 25 29  1  0  0  0  0
 27 26  1  0  0  0  0
 28 27  2  0  0  0  0
 29 28  1  0  0  0  0
 29 30  1  0  0  0  0
M  END
> <Inchi_key>
SNBUBQHDYVFSQF-UHFFFAOYSA-N

> <Source>
Mulliner

> <ID>
HT0407

> <H_MFHB>
0

> <CAS>


> <Cholestasis>


> <Name>
cefmetazole sodium;cefmetazole

> <Class>
0


$$$$