
  -INDIGO-08031710012D

 18 18  0  0  0  0  0  0  0  0999 V2000
    6.1613   -0.9113    0.0000 C   0  0  0  0  0  0  0  0  0  0  0  0
    6.1613   -2.4113    0.0000 N   0  0  0  0  0  0  0  0  0  0  0  0
    7.4602   -3.1613    0.0000 N   0  0  0  0  0  0  0  0  0  0  0  0
    8.7593   -2.4113    0.0000 O   0  0  0  0  0  0  0  0  0  0  0  0
    4.8621   -3.1613    0.0000 C   0  0  0  0  0  0  0  0  0  0  0  0
    4.8621   -4.6613    0.0000 O   0  0  0  0  0  0  0  0  0  0  0  0
    3.5632   -2.4113    0.0000 N   0  0  0  0  0  0  0  0  0  0  0  0
    2.2642   -3.1613    0.0000 C   0  0  0  0  0  0  0  0  0  0  0  0
    2.2642   -4.6613    0.0000 C   0  0  0  0  0  0  0  0  0  0  0  0
    3.5632   -5.4113    0.0000 O   0  0  0  0  0  0  0  0  0  0  0  0
    0.9651   -5.4113    0.0000 O   0  0  0  0  0  0  0  0  0  0  0  0
   -0.3339   -4.6613    0.0000 C   0  0  0  0  0  0  0  0  0  0  0  0
   -1.6330   -5.4113    0.0000 C   0  0  0  0  0  0  0  0  0  0  0  0
   -1.6330   -6.9113    0.0000 O   0  0  0  0  0  0  0  0  0  0  0  0
   -0.3339   -3.1613    0.0000 C   0  0  0  0  0  0  0  0  0  0  0  0
   -1.6330   -2.4113    0.0000 O   0  0  0  0  0  0  0  0  0  0  0  0
    0.9651   -2.4113    0.0000 C   0  0  0  0  0  0  0  0  0  0  0  0
    0.9651   -0.9113    0.0000 O   0  0  0  0  0  0  0  0  0  0  0  0
  1  2  1  0  0  0  0
  2  3  1  0  0  0  0
  2  5  1  0  0  0  0
  3  4  2  0  0  0  0
  5  6  2  0  0  0  0
  5  7  1  0  0  0  0
  7  8  1  0  0  0  0
  9  8  1  0  0  0  0
  8 17  1  0  0  0  0
  9 10  1  0  0  0  0
 11  9  1  0  0  0  0
 12 11  1  0  0  0  0
 12 13  1  0  0  0  0
 15 12  1  0  0  0  0
 13 14  1  0  0  0  0
 15 16  1  0  0  0  0
 17 15  1  0  0  0  0
 17 18  1  0  0  0  0
M  END
> <Inchi_key>
ZSJLQEPLLKMAKR-UHFFFAOYSA-N

> <Source>
Mulliner , Kotsampasakou

> <ID>
EK0489;HT1919

> <H_MFHB>
0

> <CAS>


> <Cholestasis>
0

> <Name>
streptozocin;streptozotocin

> <Class>
0

$$$$