

  -INDIGO-08031710012D

 10  9  0  0  0  0  0  0  0  0999 V2000
   10.6859   -2.8633    0.0000 C   0  0  0  0  0  0  0  0  0  0  0  0
    9.3868   -2.1133    0.0000 C   0  0  0  0  0  0  0  0  0  0  0  0
    8.0878   -2.8633    0.0000 C   0  0  0  0  0  0  0  0  0  0  0  0
    6.7887   -2.1133    0.0000 C   0  0  0  0  0  0  0  0  0  0  0  0
    5.4897   -2.8633    0.0000 C   0  0  0  0  0  0  0  0  0  0  0  0
    4.1908   -2.1133    0.0000 C   0  0  0  0  0  0  0  0  0  0  0  0
    2.8916   -2.8633    0.0000 C   0  0  0  0  0  0  0  0  0  0  0  0
    1.5927   -2.1133    0.0000 C   0  0  0  0  0  0  0  0  0  0  0  0
    0.2936   -2.8633    0.0000 O   0  0  0  0  0  0  0  0  0  0  0  0
    1.5927   -0.6133    0.0000 O   0  0  0  0  0  0  0  0  0  0  0  0
  1  2  1  0  0  0  0
  2  3  1  0  0  0  0
  3  4  1  0  0  0  0
  4  5  1  0  0  0  0
  5  6  1  0  0  0  0
  6  7  1  0  0  0  0
  7  8  1  0  0  0  0
  8  9  2  0  0  0  0
  8 10  1  0  0  0  0
M  END
> <Inchi_key>
WWZKQHOCKIZLMA-UHFFFAOYSA-N

> <Source>
Mulliner

> <ID>
HT0366

> <H_MFHB>
0

> <CAS>


> <Cholestasis>


> <Name>
caprylic acid

> <Class>
0


$$$$