
  -INDIGO-08031710012D

 22 23  0  0  0  0  0  0  0  0999 V2000
    2.2500    5.6685    0.0000 O   0  0  0  0  0  0  0  0  0  0  0  0
    1.5000    4.3695    0.0000 C   0  0  0  0  0  0  0  0  0  0  0  0
    2.2500    3.0705    0.0000 C   0  0  0  0  0  0  0  0  0  0  0  0
    3.7500    3.0705    0.0000 O   0  0  0  0  0  0  0  0  0  0  0  0
    4.5000    1.7714    0.0000 C   0  0  0  0  0  0  0  0  0  0  0  0
    3.7500    0.4724    0.0000 C   0  0  0  0  0  0  0  0  0  0  0  0
    3.0000   -0.8267    0.0000 N   0  0  0  0  0  0  0  0  0  0  0  0
    6.0000    1.7714    0.0000 C   0  0  0  0  0  0  0  0  0  0  0  0
    6.7500    3.0705    0.0000 C   0  0  0  0  0  0  0  0  0  0  0  0
    8.2500    3.0705    0.0000 C   0  0  0  0  0  0  0  0  0  0  0  0
    9.0000    1.7714    0.0000 C   0  0  0  0  0  0  0  0  0  0  0  0
    8.2500    0.4724    0.0000 C   0  0  0  0  0  0  0  0  0  0  0  0
    6.7500    0.4724    0.0000 C   0  0  0  0  0  0  0  0  0  0  0  0
    1.5000    1.7714    0.0000 O   0  0  0  0  0  0  0  0  0  0  0  0
    0.0000    1.7714    0.0000 C   0  0  0  0  0  0  0  0  0  0  0  0
   -0.7500    3.0705    0.0000 C   0  0  0  0  0  0  0  0  0  0  0  0
   -2.2500    3.0705    0.0000 O   0  0  0  0  0  0  0  0  0  0  0  0
    0.0000    4.3695    0.0000 C   0  0  0  0  0  0  0  0  0  0  0  0
   -0.7500    5.6685    0.0000 O   0  0  0  0  0  0  0  0  0  0  0  0
   -0.7500    0.4724    0.0000 C   0  0  0  0  0  0  0  0  0  0  0  0
   -2.2500    0.4724    0.0000 O   0  0  0  0  0  0  0  0  0  0  0  0
    0.0000   -0.8267    0.0000 O   0  0  0  0  0  0  0  0  0  0  0  0
  1  2  1  0  0  0  0
  3  2  1  0  0  0  0
  2 18  1  0  0  0  0
  3  4  1  0  0  0  0
 14  3  1  0  0  0  0
  4  5  1  0  0  0  0
  5  6  1  0  0  0  0
  5  8  1  0  0  0  0
  6  7  3  0  0  0  0
  9  8  2  0  0  0  0
  8 13  1  0  0  0  0
 10  9  1  0  0  0  0
 11 10  2  0  0  0  0
 12 11  1  0  0  0  0
 13 12  2  0  0  0  0
 15 14  1  0  0  0  0
 16 15  1  0  0  0  0
 15 20  1  0  0  0  0
 16 17  1  0  0  0  0
 18 16  1  0  0  0  0
 18 19  1  0  0  0  0
 20 21  2  0  0  0  0
 20 22  1  0  0  0  0
M  END
> <Inchi_key>
XLSLFPQAPYONPW-UHFFFAOYSA-N

> <Source>
Mulliner

> <ID>
HT3403

> <H_MFHB>
0

> <CAS>


> <Cholestasis>


> <Name>


> <Class>
0

$$$$