

  -INDIGO-08031710012D

 33 37  0  0  0  0  0  0  0  0999 V2000
   -1.9910    0.5213    0.0000 C   0  0  0  0  0  0  0  0  0  0  0  0
   -0.6920   -0.2287    0.0000 C   0  0  0  0  0  0  0  0  0  0  0  0
    0.6072    0.5213    0.0000 N   0  0  0  0  0  0  0  0  0  0  0  0
    0.6072    2.0213    0.0000 C   0  0  0  0  0  0  0  0  0  0  0  0
   -0.6920    2.7713    0.0000 C   0  0  0  0  0  0  0  0  0  0  0  0
   -0.6920    4.2713    0.0000 C   0  0  0  0  0  0  0  0  0  0  0  0
   -1.9910    5.0213    0.0000 N   0  0  0  0  0  0  0  0  0  0  0  0
   -3.2899    4.2713    0.0000 C   0  0  0  0  0  0  0  0  0  0  0  0
   -3.2899    2.7713    0.0000 C   0  0  0  0  0  0  0  0  0  0  0  0
   -4.5889    2.0213    0.0000 C   0  0  0  0  0  0  0  0  0  0  0  0
   -5.8881    2.7713    0.0000 C   0  0  0  0  0  0  0  0  0  0  0  0
   -7.1871    2.0213    0.0000 Cl  0  0  0  0  0  0  0  0  0  0  0  0
   -5.8881    4.2713    0.0000 C   0  0  0  0  0  0  0  0  0  0  0  0
   -4.5889    5.0213    0.0000 C   0  0  0  0  0  0  0  0  0  0  0  0
   -1.9910    6.5213    0.0000 C   0  0  0  0  0  0  0  0  0  0  0  0
   -3.2899    7.2713    0.0000 C   0  0  0  0  0  0  0  0  0  0  0  0
   -3.2899    8.7713    0.0000 C   0  0  0  0  0  0  0  0  0  0  0  0
   -1.9910    9.5213    0.0000 C   0  0  0  0  0  0  0  0  0  0  0  0
   -0.6920    8.7713    0.0000 C   0  0  0  0  0  0  0  0  0  0  0  0
   -0.6920    7.2713    0.0000 C   0  0  0  0  0  0  0  0  0  0  0  0
    0.6072    6.5213    0.0000 N   0  0  0  0  0  0  0  0  0  0  0  0
    0.6072    5.0213    0.0000 C   0  0  0  0  0  0  0  0  0  0  0  0
    1.9062    4.2713    0.0000 C   0  0  0  0  0  0  0  0  0  0  0  0
    1.9062    2.7713    0.0000 C   0  0  0  0  0  0  0  0  0  0  0  0
    3.2052    2.0213    0.0000 N   0  0  0  0  0  0  0  0  0  0  0  0
    4.5041    2.7713    0.0000 C   0  0  0  0  0  0  0  0  0  0  0  0
    5.8034    2.0213    0.0000 C   0  0  0  0  0  0  0  0  0  0  0  0
    7.1023    2.7713    0.0000 C   0  0  0  0  0  0  0  0  0  0  0  0
    7.1023    4.2713    0.0000 C   0  0  0  0  0  0  0  0  0  0  0  0
    8.4013    5.0213    0.0000 Cl  0  0  0  0  0  0  0  0  0  0  0  0
    5.8034    5.0213    0.0000 C   0  0  0  0  0  0  0  0  0  0  0  0
    4.5041    4.2713    0.0000 C   0  0  0  0  0  0  0  0  0  0  0  0
   -0.6920   -1.7287    0.0000 C   0  0  0  0  0  0  0  0  0  0  0  0
  1  2  1  0  0  0  0
  2  3  2  0  0  0  0
  2 33  1  0  0  0  0
  3  4  1  0  0  0  0
  5  4  2  0  0  0  0
  4 24  1  0  0  0  0
  6  5  1  0  0  0  0
  7  6  1  0  0  0  0
  6 22  2  0  0  0  0
  7  8  1  0  0  0  0
 15  7  1  0  0  0  0
  9  8  2  0  0  0  0
  8 14  1  0  0  0  0
 10  9  1  0  0  0  0
 11 10  2  0  0  0  0
 11 12  1  0  0  0  0
 13 11  1  0  0  0  0
 14 13  2  0  0  0  0
 16 15  2  0  0  0  0
 15 20  1  0  0  0  0
 17 16  1  0  0  0  0
 18 17  2  0  0  0  0
 19 18  1  0  0  0  0
 20 19  2  0  0  0  0
 21 20  1  0  0  0  0
 22 21  1  0  0  0  0
 23 22  1  0  0  0  0
 24 23  2  0  0  0  0
 24 25  1  0  0  0  0
 25 26  1  0  0  0  0
 27 26  2  0  0  0  0
 26 32  1  0  0  0  0
 28 27  1  0  0  0  0
 29 28  2  0  0  0  0
 29 30  1  0  0  0  0
 31 29  1  0  0  0  0
 32 31  2  0  0  0  0
M  END
> <Inchi_key>
QZOZORJVUIIALW-UHFFFAOYSA-N

> <Source>
Mulliner

> <ID>
HT0522

> <H_MFHB>
0

> <CAS>


> <Cholestasis>


> <Name>
clofazimine

> <Class>
0


$$$$