

  -INDIGO-08031710012D

 54 61  0  0  0  0  0  0  0  0999 V2000
   13.8880   13.9188    0.0000 C   0  0  0  0  0  0  0  0  0  0  0  0
   13.8914   12.4188    0.0000 C   0  0  0  0  0  0  0  0  0  0  0  0
   12.5939   11.6659    0.0000 O   0  0  0  0  0  0  0  0  0  0  0  0
   12.5973   10.1660    0.0000 C   0  0  0  0  0  0  0  0  0  0  0  0
   13.8982    9.4188    0.0000 C   0  0  0  0  0  0  0  0  0  0  0  0
   15.1952   10.1717    0.0000 C   0  0  0  0  0  0  0  0  0  0  0  0
   16.4961    9.4245    0.0000 O   0  0  0  0  0  0  0  0  0  0  0  0
   15.1922   11.6717    0.0000 C   0  0  0  0  0  0  0  0  0  0  0  0
   16.4897   12.4247    0.0000 O   0  0  0  0  0  0  0  0  0  0  0  0
   11.2999    9.4131    0.0000 O   0  0  0  0  0  0  0  0  0  0  0  0
    9.9994   10.1602    0.0000 C   0  0  0  0  0  0  0  0  0  0  0  0
    8.7020    9.4072    0.0000 C   0  0  0  0  0  0  0  0  0  0  0  0
    8.7054    7.9074    0.0000 O   0  0  0  0  0  0  0  0  0  0  0  0
    7.4011   10.1545    0.0000 C   0  0  0  0  0  0  0  0  0  0  0  0
    7.3977   11.6545    0.0000 C   0  0  0  0  0  0  0  0  0  0  0  0
    6.0972   12.4017    0.0000 O   0  0  0  0  0  0  0  0  0  0  0  0
    4.7998   11.6486    0.0000 C   0  0  0  0  0  0  0  0  0  0  0  0
    4.8032   10.1487    0.0000 C   0  0  0  0  0  0  0  0  0  0  0  0
    6.1036    9.4017    0.0000 O   0  0  0  0  0  0  0  0  0  0  0  0
    3.5057    9.3960    0.0000 C   0  0  0  0  0  0  0  0  0  0  0  0
    2.2053   10.1429    0.0000 C   0  0  0  0  0  0  0  0  0  0  0  0
    0.9078    9.3901    0.0000 O   0  0  0  0  0  0  0  0  0  0  0  0
   -0.3930   10.1372    0.0000 C   0  0  0  0  0  0  0  0  0  0  0  0
   -0.3964   11.6372    0.0000 C   0  0  0  0  0  0  0  0  0  0  0  0
   -1.6969   12.3844    0.0000 C   0  0  0  0  0  0  0  0  0  0  0  0
   -2.9943   11.6315    0.0000 C   0  0  0  0  0  0  0  0  0  0  0  0
   -2.9713   13.1313    0.0000 C   0  0  0  0  0  0  0  0  0  0  0  0
   -2.9909   10.1315    0.0000 C   0  0  0  0  0  0  0  0  0  0  0  0
   -4.2884    9.3787    0.0000 C   0  0  0  0  0  0  0  0  0  0  0  0
   -5.5893   10.1257    0.0000 C   0  0  0  0  0  0  0  0  0  0  0  0
   -5.5927   11.6256    0.0000 C   0  0  0  0  0  0  0  0  0  0  0  0
   -4.2952   12.3787    0.0000 C   0  0  0  0  0  0  0  0  0  0  0  0
   -4.2982   13.8787    0.0000 C   0  0  0  0  0  0  0  0  0  0  0  0
   -5.5991   14.6256    0.0000 C   0  0  0  0  0  0  0  0  0  0  0  0
   -6.8965   13.8729    0.0000 C   0  0  0  0  0  0  0  0  0  0  0  0
   -7.0044   15.3690    0.0000 C   0  0  0  0  0  0  0  0  0  0  0  0
   -8.3240   14.3331    0.0000 C   0  0  0  0  0  0  0  0  0  0  0  0
   -9.2033   13.1178    0.0000 C   0  0  0  0  0  0  0  0  0  0  0  0
   -8.3189   11.9062    0.0000 C   0  0  0  0  0  0  0  0  0  0  0  0
   -6.8931   12.3730    0.0000 C   0  0  0  0  0  0  0  0  0  0  0  0
   -7.0466   10.8806    0.0000 O   0  0  0  0  0  0  0  0  0  0  0  0
   -8.7907   15.7587    0.0000 C   0  0  0  0  0  0  0  0  0  0  0  0
   -7.9118   16.9742    0.0000 C   0  0  0  0  0  0  0  0  0  0  0  0
   -8.7962   18.1858    0.0000 O   0  0  0  0  0  0  0  0  0  0  0  0
  -10.2216   17.7192    0.0000 C   0  0  0  0  0  0  0  0  0  0  0  0
  -11.4372   18.5982    0.0000 O   0  0  0  0  0  0  0  0  0  0  0  0
  -10.2186   16.2193    0.0000 C   0  0  0  0  0  0  0  0  0  0  0  0
   -1.6905    9.3844    0.0000 C   0  0  0  0  0  0  0  0  0  0  0  0
    2.2019   11.6429    0.0000 O   0  0  0  0  0  0  0  0  0  0  0  0
    3.4989   12.3960    0.0000 C   0  0  0  0  0  0  0  0  0  0  0  0
    3.4959   13.8958    0.0000 C   0  0  0  0  0  0  0  0  0  0  0  0
    8.6952   12.4074    0.0000 O   0  0  0  0  0  0  0  0  0  0  0  0
    9.9960   11.6602    0.0000 C   0  0  0  0  0  0  0  0  0  0  0  0
   11.2935   12.4131    0.0000 C   0  0  0  0  0  0  0  0  0  0  0  0
  1  2  1  0  0  0  0
  3  2  1  0  0  0  0
  2  8  1  0  0  0  0
  4  3  1  0  0  0  0
  5  4  1  0  0  0  0
  4 10  1  0  0  0  0
  6  5  1  0  0  0  0
  6  7  1  0  0  0  0
  8  6  1  0  0  0  0
  8  9  1  0  0  0  0
 10 11  1  0  0  0  0
 12 11  1  0  0  0  0
 11 53  1  0  0  0  0
 12 13  1  0  0  0  0
 14 12  1  0  0  0  0
 15 14  1  0  0  0  0
 15 16  1  0  0  0  0
 52 15  1  0  0  0  0
 16 17  1  0  0  0  0
 18 17  1  0  0  0  0
 17 50  1  0  0  0  0
 18 19  1  0  0  0  0
 20 18  1  0  0  0  0
 21 20  1  0  0  0  0
 21 22  1  0  0  0  0
 49 21  1  0  0  0  0
 22 23  1  0  0  0  0
 24 23  1  0  0  0  0
 23 48  1  0  0  0  0
 25 24  1  0  0  0  0
 26 25  1  0  0  0  0
 26 27  1  0  0  0  0
 26 28  1  0  0  0  0
 32 26  1  0  0  0  0
 28 29  1  0  0  0  0
 48 28  1  0  0  0  0
 29 30  1  0  0  0  0
 30 31  1  0  0  0  0
 32 31  1  0  0  0  0
 31 40  1  0  0  0  0
 33 32  1  0  0  0  0
 34 33  1  0  0  0  0
 35 34  1  0  0  0  0
 35 36  1  0  0  0  0
 37 35  1  0  0  0  0
 35 40  1  0  0  0  0
 38 37  1  0  0  0  0
 37 42  1  0  0  0  0
 39 38  1  0  0  0  0
 40 39  1  0  0  0  0
 40 41  1  0  0  0  0
 43 42  1  0  0  0  0
 42 47  2  0  0  0  0
 44 43  1  0  0  0  0
 45 44  1  0  0  0  0
 45 46  2  0  0  0  0
 47 45  1  0  0  0  0
 50 49  1  0  0  0  0
 50 51  1  0  0  0  0
 53 52  1  0  0  0  0
 53 54  1  0  0  0  0
M  END
> <Inchi_key>
WDJUZGPOPHTGOT-UHFFFAOYSA-N

> <Source>
Mulliner , Kotsampasakou

> <ID>
EK0163;HT0665

> <H_MFHB>
0

> <CAS>


> <Cholestasis>
0

> <Name>
digitoxin

> <Class>
0


$$$$