
  -INDIGO-08031710012D

 23 26  0  0  0  0  0  0  0  0999 V2000
    4.7519    2.7823    0.0000 C   0  0  0  0  0  0  0  0  0  0  0  0
    4.0177    1.4742    0.0000 C   0  0  0  0  0  0  0  0  0  0  0  0
    2.5213    1.4546    0.0000 C   0  0  0  0  0  0  0  0  0  0  0  0
    1.7862    0.1473    0.0000 O   0  0  0  0  0  0  0  0  0  0  0  0
    2.5462   -1.1419    0.0000 C   0  0  0  0  0  0  0  0  0  0  0  0
    4.0493   -1.1249    0.0000 C   0  0  0  0  0  0  0  0  0  0  0  0
    4.7839    0.1814    0.0000 N   0  0  0  0  0  0  0  0  0  0  0  0
    6.2864    0.1984    0.0000 C   0  0  0  0  0  0  0  0  0  0  0  0
    7.0471   -1.0904    0.0000 C   0  0  0  0  0  0  0  0  0  0  0  0
    8.5471   -1.0748    0.0000 C   0  0  0  0  0  0  0  0  0  0  0  0
    9.2835    0.2320    0.0000 O   0  0  0  0  0  0  0  0  0  0  0  0
    9.3107   -2.3659    0.0000 O   0  0  0  0  0  0  0  0  0  0  0  0
    6.3123   -2.3966    0.0000 C   0  0  0  0  0  0  0  0  0  0  0  0
    7.0782   -3.6864    0.0000 O   0  0  0  0  0  0  0  0  0  0  0  0
    4.8176   -2.4162    0.0000 C   0  0  0  0  0  0  0  0  0  0  0  0
    4.0795   -3.7235    0.0000 C   0  0  0  0  0  0  0  0  0  0  0  0
    2.5770   -3.7404    0.0000 C   0  0  0  0  0  0  0  0  0  0  0  0
    1.8417   -5.0479    0.0000 F   0  0  0  0  0  0  0  0  0  0  0  0
    1.8111   -2.4493    0.0000 C   0  0  0  0  0  0  0  0  0  0  0  0
    0.3112   -2.4663    0.0000 C   0  0  0  0  0  0  0  0  0  0  0  0
    0.7158   -3.9107    0.0000 N   0  0  0  0  0  0  0  0  0  0  0  0
   -0.2785   -1.0871    0.0000 C   0  0  0  0  0  0  0  0  0  0  0  0
   -1.1781   -2.2874    0.0000 C   0  0  0  0  0  0  0  0  0  0  0  0
  1  2  1  0  0  0  0
  3  2  1  0  0  0  0
  2  7  1  0  0  0  0
  4  3  1  0  0  0  0
  5  4  1  0  0  0  0
  5  6  2  0  0  0  0
 19  5  1  0  0  0  0
  6  7  1  0  0  0  0
  6 15  1  0  0  0  0
  7  8  1  0  0  0  0
  8  9  2  0  0  0  0
  9 10  1  0  0  0  0
  9 13  1  0  0  0  0
 10 11  2  0  0  0  0
 10 12  1  0  0  0  0
 13 14  2  0  0  0  0
 13 15  1  0  0  0  0
 15 16  2  0  0  0  0
 16 17  1  0  0  0  0
 17 18  1  0  0  0  0
 17 19  2  0  0  0  0
 19 20  1  0  0  0  0
 20 21  1  0  0  0  0
 22 20  1  0  0  0  0
 20 23  1  0  0  0  0
 23 22  1  0  0  0  0
M  END
> <Inchi_key>
XAGMUUZPGZWTRP-UHFFFAOYSA-N

> <Source>
Mulliner

> <ID>
HT1601

> <H_MFHB>
0

> <CAS>
127045-41-4

> <Cholestasis>


> <Name>
pazufloxacin

> <Class>
0

$$$$