

  -INDIGO-08031710012D

 12 12  0  0  0  0  0  0  0  0999 V2000
    7.7844    2.0858    0.0000 C   0  0  0  0  0  0  0  0  0  0  0  0
    6.4853    1.3358    0.0000 N   0  0  0  0  0  0  0  0  0  0  0  0
    6.4853   -0.1642    0.0000 C   0  0  0  0  0  0  0  0  0  0  0  0
    5.1863    2.0858    0.0000 C   0  0  0  0  0  0  0  0  0  0  0  0
    5.1863    3.5858    0.0000 O   0  0  0  0  0  0  0  0  0  0  0  0
    3.8873    1.3358    0.0000 N   0  0  0  0  0  0  0  0  0  0  0  0
    2.5882    2.0858    0.0000 C   0  0  0  0  0  0  0  0  0  0  0  0
    2.5882    3.5858    0.0000 C   0  0  0  0  0  0  0  0  0  0  0  0
    1.2892    4.3358    0.0000 C   0  0  0  0  0  0  0  0  0  0  0  0
   -0.0099    3.5858    0.0000 C   0  0  0  0  0  0  0  0  0  0  0  0
   -0.0099    2.0858    0.0000 C   0  0  0  0  0  0  0  0  0  0  0  0
    1.2892    1.3358    0.0000 C   0  0  0  0  0  0  0  0  0  0  0  0
  1  2  1  0  0  0  0
  2  3  1  0  0  0  0
  2  4  1  0  0  0  0
  4  5  2  0  0  0  0
  4  6  1  0  0  0  0
  6  7  1  0  0  0  0
  8  7  2  0  0  0  0
  7 12  1  0  0  0  0
  9  8  1  0  0  0  0
 10  9  2  0  0  0  0
 11 10  1  0  0  0  0
 12 11  2  0  0  0  0
M  END
> <Inchi_key>
XXOYNJXVWVNOOJ-UHFFFAOYSA-N

> <Source>
Mulliner

> <ID>
HT2692

> <H_MFHB>
0

> <CAS>


> <Cholestasis>


> <Name>


> <Class>
0


$$$$