
  -INDIGO-08031710012D

 13 13  0  0  0  0  0  0  0  0999 V2000
   11.2765   -1.1754    0.0000 C   0  0  0  0  0  0  0  0  0  0  0  0
    9.9774   -1.9254    0.0000 C   0  0  0  0  0  0  0  0  0  0  0  0
    8.6784   -1.1754    0.0000 C   0  0  0  0  0  0  0  0  0  0  0  0
    7.3793   -1.9254    0.0000 O   0  0  0  0  0  0  0  0  0  0  0  0
    6.0803   -1.1754    0.0000 C   0  0  0  0  0  0  0  0  0  0  0  0
    6.0803    0.3246    0.0000 O   0  0  0  0  0  0  0  0  0  0  0  0
    4.7814   -1.9254    0.0000 C   0  0  0  0  0  0  0  0  0  0  0  0
    4.7814   -3.4254    0.0000 C   0  0  0  0  0  0  0  0  0  0  0  0
    3.4822   -4.1754    0.0000 C   0  0  0  0  0  0  0  0  0  0  0  0
    2.1833   -3.4254    0.0000 C   0  0  0  0  0  0  0  0  0  0  0  0
    0.8842   -4.1754    0.0000 O   0  0  0  0  0  0  0  0  0  0  0  0
    2.1833   -1.9254    0.0000 C   0  0  0  0  0  0  0  0  0  0  0  0
    3.4822   -1.1754    0.0000 C   0  0  0  0  0  0  0  0  0  0  0  0
  1  2  1  0  0  0  0
  2  3  1  0  0  0  0
  3  4  1  0  0  0  0
  4  5  1  0  0  0  0
  5  6  2  0  0  0  0
  5  7  1  0  0  0  0
  8  7  2  0  0  0  0
  7 13  1  0  0  0  0
  9  8  1  0  0  0  0
 10  9  2  0  0  0  0
 10 11  1  0  0  0  0
 12 10  1  0  0  0  0
 13 12  2  0  0  0  0
M  END
> <Inchi_key>
QELSKZZBTMNZEB-UHFFFAOYSA-N

> <Source>
Mulliner

> <ID>
HT2774

> <H_MFHB>
0

> <CAS>


> <Cholestasis>


> <Name>


> <Class>
0

$$$$