

  -INDIGO-08031710012D

 17 18  0  0  0  0  0  0  0  0999 V2000
    0.6465   -1.2154    0.0000 O   0  0  0  0  0  0  0  0  0  0  0  0
    1.2650   -2.5820    0.0000 C   0  0  0  0  0  0  0  0  0  0  0  0
    0.5229   -3.8856    0.0000 N   0  0  0  0  0  0  0  0  0  0  0  0
    2.7341   -2.8849    0.0000 N   0  0  0  0  0  0  0  0  0  0  0  0
    2.9000   -4.3757    0.0000 C   0  0  0  0  0  0  0  0  0  0  0  0
    4.2036   -5.1177    0.0000 C   0  0  0  0  0  0  0  0  0  0  0  0
    1.5334   -4.9941    0.0000 C   0  0  0  0  0  0  0  0  0  0  0  0
    5.4981   -4.3598    0.0000 C   0  0  0  0  0  0  0  0  0  0  0  0
    4.2128   -6.6177    0.0000 O   0  0  0  0  0  0  0  0  0  0  0  0
    1.2306   -6.4633    0.0000 C   0  0  0  0  0  0  0  0  0  0  0  0
    5.4888   -2.8598    0.0000 C   0  0  0  0  0  0  0  0  0  0  0  0
    6.8015   -5.1018    0.0000 C   0  0  0  0  0  0  0  0  0  0  0  0
    6.7832   -2.1019    0.0000 C   0  0  0  0  0  0  0  0  0  0  0  0
    8.0961   -4.3439    0.0000 C   0  0  0  0  0  0  0  0  0  0  0  0
    8.0868   -2.8439    0.0000 C   0  0  0  0  0  0  0  0  0  0  0  0
    9.3813   -2.0860    0.0000 S   0  0  0  0  0  0  0  0  0  0  0  0
   10.6849   -2.8280    0.0000 C   0  0  0  0  0  0  0  0  0  0  0  0
  1  2  2  0  0  0  0
  3  2  1  0  0  0  0
  2  4  1  0  0  0  0
  4  5  1  0  0  0  0
  5  6  1  0  0  0  0
  5  7  2  0  0  0  0
  6  8  1  0  0  0  0
  6  9  2  0  0  0  0
  7  3  1  0  0  0  0
  7 10  1  0  0  0  0
 11  8  2  0  0  0  0
  8 12  1  0  0  0  0
 13 11  1  0  0  0  0
 12 14  2  0  0  0  0
 15 13  2  0  0  0  0
 14 15  1  0  0  0  0
 15 16  1  0  0  0  0
 16 17  1  0  0  0  0
M  END
> <Inchi_key>
ZJKNESGOIKRXQY-UHFFFAOYSA-N

> <Source>
Mulliner

> <ID>
HT0760

> <H_MFHB>
0

> <CAS>
77671-31-9

> <Cholestasis>


> <Name>
enoximone

> <Class>
0


$$$$