
  -INDIGO-08031710012D

 31 34  0  0  0  0  0  0  0  0999 V2000
   15.7110   -0.1432    0.0000 C   0  0  0  0  0  0  0  0  0  0  0  0
   14.4118   -0.8931    0.0000 O   0  0  0  0  0  0  0  0  0  0  0  0
   14.4118   -2.3932    0.0000 C   0  0  0  0  0  0  0  0  0  0  0  0
   15.7110   -3.1432    0.0000 C   0  0  0  0  0  0  0  0  0  0  0  0
   15.7110   -4.6431    0.0000 C   0  0  0  0  0  0  0  0  0  0  0  0
   14.4118   -5.3933    0.0000 C   0  0  0  0  0  0  0  0  0  0  0  0
   13.1130   -4.6431    0.0000 C   0  0  0  0  0  0  0  0  0  0  0  0
   13.1130   -3.1432    0.0000 C   0  0  0  0  0  0  0  0  0  0  0  0
   11.8138   -2.3932    0.0000 O   0  0  0  0  0  0  0  0  0  0  0  0
   10.5149   -3.1432    0.0000 C   0  0  0  0  0  0  0  0  0  0  0  0
    9.2157   -2.3932    0.0000 C   0  0  0  0  0  0  0  0  0  0  0  0
    7.9169   -3.1432    0.0000 C   0  0  0  0  0  0  0  0  0  0  0  0
    6.6177   -2.3932    0.0000 N   0  0  0  0  0  0  0  0  0  0  0  0
    5.3188   -3.1432    0.0000 C   0  0  0  0  0  0  0  0  0  0  0  0
    4.0196   -2.3932    0.0000 C   0  0  0  0  0  0  0  0  0  0  0  0
    4.0196   -0.8931    0.0000 C   0  0  0  0  0  0  0  0  0  0  0  0
    5.3188   -0.1432    0.0000 C   0  0  0  0  0  0  0  0  0  0  0  0
    6.6177   -0.8931    0.0000 C   0  0  0  0  0  0  0  0  0  0  0  0
    2.7207   -0.1432    0.0000 C   0  0  0  0  0  0  0  0  0  0  0  0
    2.5636    1.3486    0.0000 N   0  0  0  0  0  0  0  0  0  0  0  0
    1.0966    1.6605    0.0000 O   0  0  0  0  0  0  0  0  0  0  0  0
    0.3466    0.3614    0.0000 C   0  0  0  0  0  0  0  0  0  0  0  0
   -1.1204    0.0496    0.0000 C   0  0  0  0  0  0  0  0  0  0  0  0
   -1.5842   -1.3770    0.0000 C   0  0  0  0  0  0  0  0  0  0  0  0
   -3.0513   -1.6889    0.0000 F   0  0  0  0  0  0  0  0  0  0  0  0
   -0.5804   -2.4916    0.0000 C   0  0  0  0  0  0  0  0  0  0  0  0
    0.8867   -2.1800    0.0000 C   0  0  0  0  0  0  0  0  0  0  0  0
    1.3502   -0.7534    0.0000 C   0  0  0  0  0  0  0  0  0  0  0  0
   17.0102   -5.3933    0.0000 C   0  0  0  0  0  0  0  0  0  0  0  0
   17.0102   -6.8932    0.0000 O   0  0  0  0  0  0  0  0  0  0  0  0
   18.3091   -4.6431    0.0000 C   0  0  0  0  0  0  0  0  0  0  0  0
  1  2  1  0  0  0  0
  2  3  1  0  0  0  0
  4  3  2  0  0  0  0
  3  8  1  0  0  0  0
  5  4  1  0  0  0  0
  6  5  2  0  0  0  0
  5 29  1  0  0  0  0
  7  6  1  0  0  0  0
  8  7  2  0  0  0  0
  8  9  1  0  0  0  0
  9 10  1  0  0  0  0
 10 11  1  0  0  0  0
 11 12  1  0  0  0  0
 12 13  1  0  0  0  0
 14 13  1  0  0  0  0
 13 18  1  0  0  0  0
 15 14  1  0  0  0  0
 16 15  1  0  0  0  0
 17 16  1  0  0  0  0
 16 19  1  0  0  0  0
 18 17  1  0  0  0  0
 20 19  2  0  0  0  0
 19 28  1  0  0  0  0
 21 20  1  0  0  0  0
 22 21  1  0  0  0  0
 23 22  1  0  0  0  0
 22 28  2  0  0  0  0
 24 23  2  0  0  0  0
 24 25  1  0  0  0  0
 26 24  1  0  0  0  0
 27 26  2  0  0  0  0
 28 27  1  0  0  0  0
 29 30  2  0  0  0  0
 29 31  1  0  0  0  0
M  END
> <Inchi_key>
XMXHEBAFVSFQEX-UHFFFAOYSA-N

> <Source>
Mulliner

> <ID>
HT1078

> <H_MFHB>
0

> <CAS>


> <Cholestasis>


> <Name>
iloperidone

> <Class>
0

$$$$