
  -INDIGO-08031710012D

 10  9  0  0  0  0  0  0  0  0999 V2000
    6.6226   -1.7745    0.0000 O   0  0  0  0  0  0  0  0  0  0  0  0
    5.3236   -1.0245    0.0000 P   0  0  0  0  0  0  0  0  0  0  0  0
    6.0736    0.2745    0.0000 O   0  0  0  0  0  0  0  0  0  0  0  0
    4.5736   -2.3236    0.0000 O   0  0  0  0  0  0  0  0  0  0  0  0
    4.0245   -0.2745    0.0000 O   0  0  0  0  0  0  0  0  0  0  0  0
    2.7255   -1.0245    0.0000 C   0  0  0  0  0  0  0  0  0  0  0  0
    1.4264   -0.2745    0.0000 C   0  0  0  0  0  0  0  0  0  0  0  0
    0.1274    0.4755    0.0000 Cl  0  0  0  0  0  0  0  0  0  0  0  0
    2.1764    1.0245    0.0000 Cl  0  0  0  0  0  0  0  0  0  0  0  0
    0.6764   -1.5736    0.0000 Cl  0  0  0  0  0  0  0  0  0  0  0  0
  1  2  2  0  0  0  0
  2  3  1  0  0  0  0
  2  4  1  0  0  0  0
  2  5  1  0  0  0  0
  5  6  1  0  0  0  0
  6  7  1  0  0  0  0
  7  8  1  0  0  0  0
  7  9  1  0  0  0  0
  7 10  1  0  0  0  0
M  END
> <Inchi_key>
YYQRGCZGSFRBAM-UHFFFAOYSA-N

> <Source>
Mulliner

> <ID>
HT2998

> <H_MFHB>
0

> <CAS>


> <Cholestasis>


> <Name>


> <Class>
0

$$$$