
  -INDIGO-08031710012D

 20 21  0  0  0  0  0  0  0  0999 V2000
    1.0070   -2.7467    0.0000 C   0  0  0  0  0  0  0  0  0  0  0  0
    2.1515   -1.7771    0.0000 C   0  0  0  0  0  0  0  0  0  0  0  0
    3.6086   -2.1331    0.0000 C   0  0  0  0  0  0  0  0  0  0  0  0
    4.3976   -0.8573    0.0000 C   0  0  0  0  0  0  0  0  0  0  0  0
    5.8934   -0.7456    0.0000 C   0  0  0  0  0  0  0  0  0  0  0  0
    6.7381   -1.9852    0.0000 C   0  0  0  0  0  0  0  0  0  0  0  0
    6.0869   -3.3365    0.0000 O   0  0  0  0  0  0  0  0  0  0  0  0
    8.2339   -1.8735    0.0000 O   0  0  0  0  0  0  0  0  0  0  0  0
    3.4280    0.2872    0.0000 N   0  0  0  0  0  0  0  0  0  0  0  0
    3.7840    1.7444    0.0000 C   0  0  0  0  0  0  0  0  0  0  0  0
    2.0398   -0.2812    0.0000 C   0  0  0  0  0  0  0  0  0  0  0  0
    0.7641    0.5076    0.0000 C   0  0  0  0  0  0  0  0  0  0  0  0
    0.8093    2.0070    0.0000 O   0  0  0  0  0  0  0  0  0  0  0  0
   -0.5569   -0.2028    0.0000 C   0  0  0  0  0  0  0  0  0  0  0  0
   -0.6023   -1.7021    0.0000 C   0  0  0  0  0  0  0  0  0  0  0  0
   -1.9233   -2.4126    0.0000 C   0  0  0  0  0  0  0  0  0  0  0  0
   -3.1992   -1.6237    0.0000 C   0  0  0  0  0  0  0  0  0  0  0  0
   -4.5203   -2.3341    0.0000 Cl  0  0  0  0  0  0  0  0  0  0  0  0
   -3.1539   -0.1244    0.0000 C   0  0  0  0  0  0  0  0  0  0  0  0
   -1.8328    0.5861    0.0000 C   0  0  0  0  0  0  0  0  0  0  0  0
  1  2  1  0  0  0  0
  3  2  1  0  0  0  0
  2 11  2  0  0  0  0
  4  3  2  0  0  0  0
  4  5  1  0  0  0  0
  9  4  1  0  0  0  0
  5  6  1  0  0  0  0
  6  7  2  0  0  0  0
  6  8  1  0  0  0  0
  9 10  1  0  0  0  0
 11  9  1  0  0  0  0
 11 12  1  0  0  0  0
 12 13  2  0  0  0  0
 12 14  1  0  0  0  0
 15 14  2  0  0  0  0
 14 20  1  0  0  0  0
 16 15  1  0  0  0  0
 17 16  2  0  0  0  0
 17 18  1  0  0  0  0
 19 17  1  0  0  0  0
 20 19  2  0  0  0  0
M  END
> <Inchi_key>
ZXVNMYWKKDOREA-UHFFFAOYSA-N

> <Source>
Mulliner , Kotsampasakou

> <ID>
EK0578;HT2221

> <H_MFHB>
0

> <CAS>


> <Cholestasis>
0

> <Name>
zomepirac

> <Class>
0

$$$$