

  -INDIGO-08031710012D

 27 29  0  0  0  0  0  0  0  0999 V2000
    9.3601    9.3602    0.0000 C   0  0  0  0  0  0  0  0  0  0  0  0
    9.3601    7.8603    0.0000 C   0  0  0  0  0  0  0  0  0  0  0  0
   10.6592    7.1102    0.0000 C   0  0  0  0  0  0  0  0  0  0  0  0
    8.0612    7.1102    0.0000 C   0  0  0  0  0  0  0  0  0  0  0  0
    8.0612    5.6102    0.0000 O   0  0  0  0  0  0  0  0  0  0  0  0
    6.7620    4.8603    0.0000 C   0  0  0  0  0  0  0  0  0  0  0  0
    6.7620    3.3602    0.0000 C   0  0  0  0  0  0  0  0  0  0  0  0
    5.4631    2.6102    0.0000 C   0  0  0  0  0  0  0  0  0  0  0  0
    4.1641    3.3602    0.0000 N   0  0  0  0  0  0  0  0  0  0  0  0
    4.1641    4.8603    0.0000 C   0  0  0  0  0  0  0  0  0  0  0  0
    2.8650    5.6102    0.0000 C   0  0  0  0  0  0  0  0  0  0  0  0
    1.5660    4.8603    0.0000 C   0  0  0  0  0  0  0  0  0  0  0  0
    0.2669    5.6102    0.0000 C   0  0  0  0  0  0  0  0  0  0  0  0
    0.2669    7.1102    0.0000 C   0  0  0  0  0  0  0  0  0  0  0  0
    1.5660    7.8603    0.0000 C   0  0  0  0  0  0  0  0  0  0  0  0
    2.8650    7.1102    0.0000 C   0  0  0  0  0  0  0  0  0  0  0  0
    2.8650    2.6102    0.0000 C   0  0  0  0  0  0  0  0  0  0  0  0
    2.8650    1.1102    0.0000 C   0  0  0  0  0  0  0  0  0  0  0  0
    1.5660    0.3602    0.0000 C   0  0  0  0  0  0  0  0  0  0  0  0
    0.2669    1.1102    0.0000 C   0  0  0  0  0  0  0  0  0  0  0  0
    0.2669    2.6102    0.0000 C   0  0  0  0  0  0  0  0  0  0  0  0
    1.5660    3.3602    0.0000 C   0  0  0  0  0  0  0  0  0  0  0  0
    8.0612    2.6102    0.0000 N   0  0  0  0  0  0  0  0  0  0  0  0
    8.2181    1.1184    0.0000 C   0  0  0  0  0  0  0  0  0  0  0  0
    9.6852    0.8065    0.0000 C   0  0  0  0  0  0  0  0  0  0  0  0
   10.4351    2.1055    0.0000 C   0  0  0  0  0  0  0  0  0  0  0  0
    9.4315    3.2203    0.0000 C   0  0  0  0  0  0  0  0  0  0  0  0
  1  2  1  0  0  0  0
  2  3  1  0  0  0  0
  2  4  1  0  0  0  0
  4  5  1  0  0  0  0
  5  6  1  0  0  0  0
  6  7  1  0  0  0  0
  7  8  1  0  0  0  0
  7 23  1  0  0  0  0
  8  9  1  0  0  0  0
  9 10  1  0  0  0  0
  9 17  1  0  0  0  0
 10 11  1  0  0  0  0
 12 11  2  0  0  0  0
 11 16  1  0  0  0  0
 13 12  1  0  0  0  0
 14 13  2  0  0  0  0
 15 14  1  0  0  0  0
 16 15  2  0  0  0  0
 18 17  2  0  0  0  0
 17 22  1  0  0  0  0
 19 18  1  0  0  0  0
 20 19  2  0  0  0  0
 21 20  1  0  0  0  0
 22 21  2  0  0  0  0
 24 23  1  0  0  0  0
 23 27  1  0  0  0  0
 25 24  1  0  0  0  0
 26 25  1  0  0  0  0
 27 26  1  0  0  0  0
M  END
> <Inchi_key>
UIEATEWHFDRYRU-UHFFFAOYSA-N

> <Source>
Mulliner

> <ID>
HT0263

> <H_MFHB>
0

> <CAS>
74764-40-2

> <Cholestasis>


> <Name>
bepridil hydrochloride;bepridil

> <Class>
0


$$$$