
  -INDIGO-08031710012D

 44 45  0  0  0  0  0  0  0  0999 V2000
    2.8201    4.7855    0.0000 C   0  0  0  0  0  0  0  0  0  0  0  0
    4.1193    5.5356    0.0000 C   0  0  0  0  0  0  0  0  0  0  0  0
    5.4185    6.2855    0.0000 C   0  0  0  0  0  0  0  0  0  0  0  0
    4.8695    4.2366    0.0000 O   0  0  0  0  0  0  0  0  0  0  0  0
    6.3691    4.2366    0.0000 C   0  0  0  0  0  0  0  0  0  0  0  0
    7.1193    2.9375    0.0000 C   0  0  0  0  0  0  0  0  0  0  0  0
    8.6195    2.9375    0.0000 C   0  0  0  0  0  0  0  0  0  0  0  0
    9.3691    4.2366    0.0000 C   0  0  0  0  0  0  0  0  0  0  0  0
   10.8693    4.2366    0.0000 Cl  0  0  0  0  0  0  0  0  0  0  0  0
    8.6195    5.5356    0.0000 C   0  0  0  0  0  0  0  0  0  0  0  0
    7.1193    5.5356    0.0000 C   0  0  0  0  0  0  0  0  0  0  0  0
    3.3692    6.8347    0.0000 C   0  0  0  0  0  0  0  0  0  0  0  0
    4.1193    8.1337    0.0000 O   0  0  0  0  0  0  0  0  0  0  0  0
    1.8695    6.8347    0.0000 O   0  0  0  0  0  0  0  0  0  0  0  0
    1.1194    8.1337    0.0000 C   0  0  0  0  0  0  0  0  0  0  0  0
   -0.3808    8.1337    0.0000 C   0  0  0  0  0  0  0  0  0  0  0  0
   -1.1309    9.4326    0.0000 S   0  0  0  0  0  0  0  0  0  0  0  0
   -2.6306    9.4326    0.0000 C   0  0  0  0  0  0  0  0  0  0  0  0
   -3.3807   10.7318    0.0000 C   0  0  0  0  0  0  0  0  0  0  0  0
   -4.8810   10.7318    0.0000 C   0  0  0  0  0  0  0  0  0  0  0  0
   -5.6305   12.0307    0.0000 C   0  0  0  0  0  0  0  0  0  0  0  0
   -7.1308   12.0307    0.0000 C   0  0  0  0  0  0  0  0  0  0  0  0
   -7.8809   13.3298    0.0000 C   0  0  0  0  0  0  0  0  0  0  0  0
   -9.3806   13.3298    0.0000 C   0  0  0  0  0  0  0  0  0  0  0  0
  -10.1307   12.0307    0.0000 C   0  0  0  0  0  0  0  0  0  0  0  0
  -11.6309   12.0307    0.0000 C   0  0  0  0  0  0  0  0  0  0  0  0
  -12.3805   10.7318    0.0000 C   0  0  0  0  0  0  0  0  0  0  0  0
  -13.8807   10.7318    0.0000 S   0  0  0  0  0  0  0  0  0  0  0  0
  -14.6308    9.4326    0.0000 C   0  0  0  0  0  0  0  0  0  0  0  0
  -16.1305    9.4326    0.0000 C   0  0  0  0  0  0  0  0  0  0  0  0
  -16.8806    8.1337    0.0000 O   0  0  0  0  0  0  0  0  0  0  0  0
  -18.3809    8.1337    0.0000 C   0  0  0  0  0  0  0  0  0  0  0  0
  -19.1304    9.4326    0.0000 O   0  0  0  0  0  0  0  0  0  0  0  0
  -19.1304    6.8347    0.0000 C   0  0  0  0  0  0  0  0  0  0  0  0
  -19.8806    5.5356    0.0000 C   0  0  0  0  0  0  0  0  0  0  0  0
  -17.8318    6.0848    0.0000 C   0  0  0  0  0  0  0  0  0  0  0  0
  -20.4296    7.5847    0.0000 O   0  0  0  0  0  0  0  0  0  0  0  0
  -21.7288    6.8347    0.0000 C   0  0  0  0  0  0  0  0  0  0  0  0
  -23.0280    7.5847    0.0000 C   0  0  0  0  0  0  0  0  0  0  0  0
  -24.3267    6.8347    0.0000 C   0  0  0  0  0  0  0  0  0  0  0  0
  -24.3267    5.3347    0.0000 C   0  0  0  0  0  0  0  0  0  0  0  0
  -25.6259    4.5846    0.0000 Cl  0  0  0  0  0  0  0  0  0  0  0  0
  -23.0280    4.5846    0.0000 C   0  0  0  0  0  0  0  0  0  0  0  0
  -21.7288    5.3347    0.0000 C   0  0  0  0  0  0  0  0  0  0  0  0
  1  2  1  0  0  0  0
  2  3  1  0  0  0  0
  2  4  1  0  0  0  0
  2 12  1  0  0  0  0
  4  5  1  0  0  0  0
  6  5  2  0  0  0  0
  5 11  1  0  0  0  0
  7  6  1  0  0  0  0
  8  7  2  0  0  0  0
  8  9  1  0  0  0  0
 10  8  1  0  0  0  0
 11 10  2  0  0  0  0
 12 13  2  0  0  0  0
 12 14  1  0  0  0  0
 14 15  1  0  0  0  0
 15 16  1  0  0  0  0
 16 17  1  0  0  0  0
 17 18  1  0  0  0  0
 18 19  1  0  0  0  0
 19 20  1  0  0  0  0
 20 21  1  0  0  0  0
 21 22  1  0  0  0  0
 22 23  1  0  0  0  0
 23 24  1  0  0  0  0
 24 25  1  0  0  0  0
 25 26  1  0  0  0  0
 26 27  1  0  0  0  0
 27 28  1  0  0  0  0
 28 29  1  0  0  0  0
 29 30  1  0  0  0  0
 30 31  1  0  0  0  0
 31 32  1  0  0  0  0
 32 33  2  0  0  0  0
 32 34  1  0  0  0  0
 34 35  1  0  0  0  0
 34 36  1  0  0  0  0
 34 37  1  0  0  0  0
 37 38  1  0  0  0  0
 39 38  2  0  0  0  0
 38 44  1  0  0  0  0
 40 39  1  0  0  0  0
 41 40  2  0  0  0  0
 41 42  1  0  0  0  0
 43 41  1  0  0  0  0
 44 43  2  0  0  0  0
M  END
> <Inchi_key>
RSLQBRWTDJTEHT-UHFFFAOYSA-N

> <Source>
Mulliner

> <ID>
HT2051

> <H_MFHB>
0

> <CAS>
55837-28-0

> <Cholestasis>


> <Name>
tiafibrate

> <Class>
0

$$$$