

  -INDIGO-08031710012D

 26 28  0  0  0  0  0  0  0  0999 V2000
   16.8750   -9.7428    0.0000 C   0  0  0  0  0  0  0  0  0  0  0  0
   16.1251   -8.4437    0.0000 O   0  0  0  0  0  0  0  0  0  0  0  0
   14.6251   -8.4437    0.0000 C   0  0  0  0  0  0  0  0  0  0  0  0
   13.8749   -7.1447    0.0000 C   0  0  0  0  0  0  0  0  0  0  0  0
   12.3751   -7.1447    0.0000 C   0  0  0  0  0  0  0  0  0  0  0  0
   11.6249   -8.4437    0.0000 C   0  0  0  0  0  0  0  0  0  0  0  0
   12.3751   -9.7428    0.0000 C   0  0  0  0  0  0  0  0  0  0  0  0
   13.8749   -9.7428    0.0000 C   0  0  0  0  0  0  0  0  0  0  0  0
   10.1249   -8.4437    0.0000 C   0  0  0  0  0  0  0  0  0  0  0  0
    9.3750   -9.7428    0.0000 O   0  0  0  0  0  0  0  0  0  0  0  0
    9.3750   -7.1447    0.0000 N   0  0  0  0  0  0  0  0  0  0  0  0
    7.8749   -7.1447    0.0000 C   0  0  0  0  0  0  0  0  0  0  0  0
    7.1251   -8.4437    0.0000 C   0  0  0  0  0  0  0  0  0  0  0  0
    5.6250   -8.4437    0.0000 C   0  0  0  0  0  0  0  0  0  0  0  0
    4.8751   -7.1447    0.0000 C   0  0  0  0  0  0  0  0  0  0  0  0
    3.3751   -7.1447    0.0000 C   0  0  0  0  0  0  0  0  0  0  0  0
    2.6249   -5.8457    0.0000 C   0  0  0  0  0  0  0  0  0  0  0  0
    1.1251   -5.8457    0.0000 C   0  0  0  0  0  0  0  0  0  0  0  0
    0.3749   -7.1447    0.0000 C   0  0  0  0  0  0  0  0  0  0  0  0
   -1.1251   -7.1447    0.0000 C   0  0  0  0  0  0  0  0  0  0  0  0
   -1.8750   -5.8457    0.0000 C   0  0  0  0  0  0  0  0  0  0  0  0
   -1.1251   -4.5466    0.0000 C   0  0  0  0  0  0  0  0  0  0  0  0
    0.3749   -4.5466    0.0000 N   0  0  0  0  0  0  0  0  0  0  0  0
    1.1251   -3.2476    0.0000 C   0  0  0  0  0  0  0  0  0  0  0  0
    5.6250   -5.8457    0.0000 C   0  0  0  0  0  0  0  0  0  0  0  0
    7.1251   -5.8457    0.0000 C   0  0  0  0  0  0  0  0  0  0  0  0
  1  2  1  0  0  0  0
  2  3  1  0  0  0  0
  4  3  2  0  0  0  0
  3  8  1  0  0  0  0
  5  4  1  0  0  0  0
  6  5  2  0  0  0  0
  7  6  1  0  0  0  0
  6  9  1  0  0  0  0
  8  7  2  0  0  0  0
  9 10  2  0  0  0  0
  9 11  1  0  0  0  0
 11 12  1  0  0  0  0
 13 12  2  0  0  0  0
 12 26  1  0  0  0  0
 14 13  1  0  0  0  0
 15 14  2  0  0  0  0
 15 16  1  0  0  0  0
 25 15  1  0  0  0  0
 16 17  1  0  0  0  0
 17 18  1  0  0  0  0
 19 18  1  0  0  0  0
 18 23  1  0  0  0  0
 20 19  1  0  0  0  0
 21 20  1  0  0  0  0
 22 21  1  0  0  0  0
 23 22  1  0  0  0  0
 23 24  1  0  0  0  0
 26 25  2  0  0  0  0
M  END
> <Inchi_key>
QQVVSIOBMYXGPO-UHFFFAOYSA-N

> <Source>
Mulliner

> <ID>
HT3609

> <H_MFHB>
0

> <CAS>


> <Cholestasis>


> <Name>


> <Class>
0


$$$$