
  -INDIGO-08031710012D

  9  9  0  0  0  0  0  0  0  0999 V2000
    5.8333   -0.2887    0.0000 O   0  0  0  0  0  0  0  0  0  0  0  0
    4.3333   -0.2887    0.0000 C   0  0  0  0  0  0  0  0  0  0  0  0
    3.5833    1.0104    0.0000 N   0  0  0  0  0  0  0  0  0  0  0  0
    3.5833   -1.5877    0.0000 N   0  0  0  0  0  0  0  0  0  0  0  0
    2.0833   -1.5877    0.0000 C   0  0  0  0  0  0  0  0  0  0  0  0
    1.3333   -0.2887    0.0000 C   0  0  0  0  0  0  0  0  0  0  0  0
    2.0833    1.0104    0.0000 C   0  0  0  0  0  0  0  0  0  0  0  0
   -0.1667   -0.2887    0.0000 F   0  0  0  0  0  0  0  0  0  0  0  0
    1.3333    2.3094    0.0000 N   0  0  0  0  0  0  0  0  0  0  0  0
  1  2  2  0  0  0  0
  3  2  1  0  0  0  0
  2  4  1  0  0  0  0
  4  5  2  0  0  0  0
  5  6  1  0  0  0  0
  6  7  2  0  0  0  0
  6  8  1  0  0  0  0
  7  9  1  0  0  0  0
  7  3  1  0  0  0  0
M  END
> <Inchi_key>
XRECTZIEBJDKEO-UHFFFAOYSA-N

> <Source>
Mulliner

> <ID>
HT0890

> <H_MFHB>
0

> <CAS>


> <Cholestasis>


> <Name>
flucytosine

> <Class>
0

$$$$