
  -INDIGO-08031710012D

 25 26  0  0  0  0  0  0  0  0999 V2000
   -0.1800    0.3118    0.0000 C   0  0  0  0  0  0  0  0  0  0  0  0
    0.5701    1.6108    0.0000 C   0  0  0  0  0  0  0  0  0  0  0  0
    2.0700    1.6108    0.0000 C   0  0  0  0  0  0  0  0  0  0  0  0
    2.8200    2.9098    0.0000 C   0  0  0  0  0  0  0  0  0  0  0  0
    4.3199    2.9098    0.0000 O   0  0  0  0  0  0  0  0  0  0  0  0
    5.0700    4.2090    0.0000 C   0  0  0  0  0  0  0  0  0  0  0  0
    6.5699    4.2090    0.0000 C   0  0  0  0  0  0  0  0  0  0  0  0
    7.3200    5.5078    0.0000 C   0  0  0  0  0  0  0  0  0  0  0  0
    8.8201    5.5078    0.0000 C   0  0  0  0  0  0  0  0  0  0  0  0
    9.5699    6.8070    0.0000 O   0  0  0  0  0  0  0  0  0  0  0  0
    9.5699    4.2090    0.0000 N   0  0  0  0  0  0  0  0  0  0  0  0
   11.0701    4.2090    0.0000 C   0  0  0  0  0  0  0  0  0  0  0  0
   11.8199    2.9098    0.0000 C   0  0  0  0  0  0  0  0  0  0  0  0
   13.3200    2.9098    0.0000 N   0  0  0  0  0  0  0  0  0  0  0  0
   14.0701    1.6108    0.0000 C   0  0  0  0  0  0  0  0  0  0  0  0
   13.3200    0.3118    0.0000 C   0  0  0  0  0  0  0  0  0  0  0  0
   14.0701    4.2090    0.0000 C   0  0  0  0  0  0  0  0  0  0  0  0
   15.5700    4.2090    0.0000 C   0  0  0  0  0  0  0  0  0  0  0  0
    6.5699    6.8070    0.0000 C   0  0  0  0  0  0  0  0  0  0  0  0
    7.3200    8.1060    0.0000 C   0  0  0  0  0  0  0  0  0  0  0  0
    6.5699    9.4050    0.0000 C   0  0  0  0  0  0  0  0  0  0  0  0
    5.0700    9.4050    0.0000 C   0  0  0  0  0  0  0  0  0  0  0  0
    4.3199    8.1060    0.0000 C   0  0  0  0  0  0  0  0  0  0  0  0
    5.0700    6.8070    0.0000 C   0  0  0  0  0  0  0  0  0  0  0  0
    4.3199    5.5078    0.0000 N   0  0  0  0  0  0  0  0  0  0  0  0
  1  2  1  0  0  0  0
  2  3  1  0  0  0  0
  3  4  1  0  0  0  0
  4  5  1  0  0  0  0
  5  6  1  0  0  0  0
  7  6  2  0  0  0  0
  6 25  1  0  0  0  0
  8  7  1  0  0  0  0
  8  9  1  0  0  0  0
 19  8  2  0  0  0  0
  9 10  2  0  0  0  0
  9 11  1  0  0  0  0
 11 12  1  0  0  0  0
 12 13  1  0  0  0  0
 13 14  1  0  0  0  0
 14 15  1  0  0  0  0
 14 17  1  0  0  0  0
 15 16  1  0  0  0  0
 17 18  1  0  0  0  0
 20 19  1  0  0  0  0
 19 24  1  0  0  0  0
 21 20  2  0  0  0  0
 22 21  1  0  0  0  0
 23 22  2  0  0  0  0
 24 23  1  0  0  0  0
 25 24  2  0  0  0  0
M  END
> <Inchi_key>
PUFQVTATUTYEAL-UHFFFAOYSA-N

> <Source>
Mulliner

> <ID>
HT0640

> <H_MFHB>
0

> <CAS>


> <Cholestasis>


> <Name>
dibucaine

> <Class>
0

$$$$