

  -INDIGO-08031710012D

 23 26  0  0  0  0  0  0  0  0999 V2000
   -0.7211    0.4555    0.0000 C   0  0  0  0  0  0  0  0  0  0  0  0
   -1.3656    1.8101    0.0000 C   0  0  0  0  0  0  0  0  0  0  0  0
   -0.5148    3.0454    0.0000 C   0  0  0  0  0  0  0  0  0  0  0  0
    0.2452    1.7522    0.0000 C   0  0  0  0  0  0  0  0  0  0  0  0
    1.7451    1.7638    0.0000 C   0  0  0  0  0  0  0  0  0  0  0  0
    2.4853    3.0686    0.0000 C   0  0  0  0  0  0  0  0  0  0  0  0
    1.7251    4.3618    0.0000 C   0  0  0  0  0  0  0  0  0  0  0  0
    2.4652    5.6666    0.0000 C   0  0  0  0  0  0  0  0  0  0  0  0
    3.9649    5.6782    0.0000 C   0  0  0  0  0  0  0  0  0  0  0  0
    4.7249    4.3850    0.0000 C   0  0  0  0  0  0  0  0  0  0  0  0
    6.2251    4.3966    0.0000 C   0  0  0  0  0  0  0  0  0  0  0  0
    6.9851    3.1034    0.0000 C   0  0  0  0  0  0  0  0  0  0  0  0
    8.4850    3.1150    0.0000 O   0  0  0  0  0  0  0  0  0  0  0  0
    6.2451    1.7986    0.0000 C   0  0  0  0  0  0  0  0  0  0  0  0
    4.7450    1.7870    0.0000 C   0  0  0  0  0  0  0  0  0  0  0  0
    3.9852    3.0802    0.0000 C   0  0  0  0  0  0  0  0  0  0  0  0
    0.2251    4.3502    0.0000 C   0  0  0  0  0  0  0  0  0  0  0  0
   -0.7871    5.4571    0.0000 C   0  0  0  0  0  0  0  0  0  0  0  0
   -2.1526    4.8364    0.0000 C   0  0  0  0  0  0  0  0  0  0  0  0
   -1.9842    3.3459    0.0000 C   0  0  0  0  0  0  0  0  0  0  0  0
   -2.4616    1.9239    0.0000 O   0  0  0  0  0  0  0  0  0  0  0  0
   -3.4641    3.0998    0.0000 C   0  0  0  0  0  0  0  0  0  0  0  0
   -4.9437    2.8537    0.0000 C   0  0  0  0  0  0  0  0  0  0  0  0
  1  2  1  0  0  0  0
  2  3  1  0  0  0  0
  4  3  1  0  0  0  0
 17  3  1  0  0  0  0
  3 20  1  0  0  0  0
  5  4  1  0  0  0  0
  6  5  1  0  0  0  0
  6  7  1  0  0  0  0
 16  6  1  0  0  0  0
  7  8  1  0  0  0  0
 17  7  1  0  0  0  0
  8  9  1  0  0  0  0
  9 10  1  0  0  0  0
 11 10  2  0  0  0  0
 10 16  1  0  0  0  0
 12 11  1  0  0  0  0
 12 13  2  0  0  0  0
 14 12  1  0  0  0  0
 15 14  1  0  0  0  0
 16 15  1  0  0  0  0
 18 17  1  0  0  0  0
 19 18  2  0  0  0  0
 20 19  1  0  0  0  0
 20 21  1  0  0  0  0
 20 22  1  0  0  0  0
 22 23  3  0  0  0  0
M  END
> <Inchi_key>
SIGSPDASOTUPFS-UHFFFAOYSA-N

> <Source>
Mulliner

> <ID>
HT0974

> <H_MFHB>
0

> <CAS>


> <Cholestasis>


> <Name>
gestodene

> <Class>
0


$$$$