

  -INDIGO-08031709442D

 58 64  0  0  0  0  0  0  0  0999 V2000
   21.1595    5.6697    0.0000 O   0  0  0  0  0  0  0  0  0  0  0  0
   22.4586    6.4198    0.0000 C   0  0  0  0  0  0  0  0  0  0  0  0
   23.7577    5.6697    0.0000 C   0  0  0  0  0  0  0  0  0  0  0  0
   22.4586    7.9198    0.0000 C   0  0  0  0  0  0  0  0  0  0  0  0
   23.7577    8.6697    0.0000 O   0  0  0  0  0  0  0  0  0  0  0  0
   21.1595    8.6697    0.0000 C   0  0  0  0  0  0  0  0  0  0  0  0
   19.8608    7.9198    0.0000 C   0  0  0  0  0  0  0  0  0  0  0  0
   19.8608    6.4198    0.0000 C   0  0  0  0  0  0  0  0  0  0  0  0
   18.5617    5.6697    0.0000 O   0  0  0  0  0  0  0  0  0  0  0  0
   17.2626    6.4198    0.0000 C   0  0  0  0  0  0  0  0  0  0  0  0
   17.2626    7.9198    0.0000 C   0  0  0  0  0  0  0  0  0  0  0  0
   15.9635    8.6697    0.0000 O   0  0  0  0  0  0  0  0  0  0  0  0
   14.6644    7.9198    0.0000 C   0  0  0  0  0  0  0  0  0  0  0  0
   13.3653    8.6697    0.0000 O   0  0  0  0  0  0  0  0  0  0  0  0
   12.0665    7.9198    0.0000 C   0  0  0  0  0  0  0  0  0  0  0  0
   12.0665    6.4198    0.0000 C   0  0  0  0  0  0  0  0  0  0  0  0
   10.7674    5.6697    0.0000 O   0  0  0  0  0  0  0  0  0  0  0  0
    9.4683    6.4198    0.0000 C   0  0  0  0  0  0  0  0  0  0  0  0
    8.1692    5.6697    0.0000 O   0  0  0  0  0  0  0  0  0  0  0  0
    6.8701    6.4198    0.0000 C   0  0  0  0  0  0  0  0  0  0  0  0
    5.5710    5.6697    0.0000 C   0  0  0  0  0  0  0  0  0  0  0  0
    4.2723    6.4198    0.0000 C   0  0  0  0  0  0  0  0  0  0  0  0
    2.9732    5.6697    0.0000 C   0  0  0  0  0  0  0  0  0  0  0  0
    2.9732    4.1696    0.0000 C   0  0  0  0  0  0  0  0  0  0  0  0
    4.2723    3.4197    0.0000 C   0  0  0  0  0  0  0  0  0  0  0  0
    4.2723    1.9197    0.0000 C   0  0  0  0  0  0  0  0  0  0  0  0
    5.5710    1.1696    0.0000 O   0  0  0  0  0  0  0  0  0  0  0  0
    2.9732    1.1696    0.0000 C   0  0  0  0  0  0  0  0  0  0  0  0
    1.6741    1.9197    0.0000 C   0  0  0  0  0  0  0  0  0  0  0  0
    0.3750    1.1696    0.0000 C   0  0  0  0  0  0  0  0  0  0  0  0
    0.3750   -0.3304    0.0000 C   0  0  0  0  0  0  0  0  0  0  0  0
    1.6741   -1.0803    0.0000 C   0  0  0  0  0  0  0  0  0  0  0  0
    2.9732   -0.3304    0.0000 C   0  0  0  0  0  0  0  0  0  0  0  0
    4.2723   -1.0803    0.0000 O   0  0  0  0  0  0  0  0  0  0  0  0
    1.6741    3.4197    0.0000 C   0  0  0  0  0  0  0  0  0  0  0  0
    0.3750    4.1696    0.0000 O   0  0  0  0  0  0  0  0  0  0  0  0
    5.5710    4.1696    0.0000 C   0  0  0  0  0  0  0  0  0  0  0  0
    6.8701    3.4197    0.0000 O   0  0  0  0  0  0  0  0  0  0  0  0
    4.2723    7.9198    0.0000 C   0  0  0  0  0  0  0  0  0  0  0  0
    2.9732    8.6697    0.0000 C   0  0  0  0  0  0  0  0  0  0  0  0
    1.6741    7.9198    0.0000 O   0  0  0  0  0  0  0  0  0  0  0  0
    0.3750    8.6697    0.0000 C   0  0  0  0  0  0  0  0  0  0  0  0
    2.9732   10.1697    0.0000 O   0  0  0  0  0  0  0  0  0  0  0  0
    5.5710    8.6697    0.0000 C   0  0  0  0  0  0  0  0  0  0  0  0
    4.8210    9.9686    0.0000 O   0  0  0  0  0  0  0  0  0  0  0  0
    6.8701    7.9198    0.0000 C   0  0  0  0  0  0  0  0  0  0  0  0
    6.3210    9.9686    0.0000 C   0  0  0  0  0  0  0  0  0  0  0  0
    5.5710   11.2678    0.0000 C   0  0  0  0  0  0  0  0  0  0  0  0
    9.4683    7.9198    0.0000 C   0  0  0  0  0  0  0  0  0  0  0  0
   10.7674    8.6697    0.0000 C   0  0  0  0  0  0  0  0  0  0  0  0
   10.7674   10.1697    0.0000 N   0  0  0  0  0  0  0  0  0  0  0  0
   12.0665   10.9198    0.0000 C   0  0  0  0  0  0  0  0  0  0  0  0
    9.4683   10.9198    0.0000 C   0  0  0  0  0  0  0  0  0  0  0  0
   13.3653    5.6697    0.0000 C   0  0  0  0  0  0  0  0  0  0  0  0
   14.6644    6.4198    0.0000 C   0  0  0  0  0  0  0  0  0  0  0  0
   15.9635    5.6697    0.0000 C   0  0  0  0  0  0  0  0  0  0  0  0
   15.9635    4.1696    0.0000 O   0  0  0  0  0  0  0  0  0  0  0  0
   18.5617    8.6697    0.0000 C   0  0  0  0  0  0  0  0  0  0  0  0
  2  1  1  0  0  0  0
  1  8  1  0  0  0  0
  2  3  1  0  0  0  0
  4  2  1  0  0  0  0
  4  5  2  0  0  0  0
  6  4  1  0  0  0  0
  7  6  1  0  0  0  0
  8  7  1  0  0  0  0
  8  9  1  0  0  0  0
  9 10  1  0  0  0  0
 11 10  1  0  0  0  0
 10 56  1  0  0  0  0
 12 11  1  0  0  0  0
 11 58  1  0  0  0  0
 13 12  1  0  0  0  0
 13 14  1  0  0  0  0
 55 13  1  0  0  0  0
 14 15  1  0  0  0  0
 16 15  1  0  0  0  0
 15 50  1  0  0  0  0
 17 16  1  0  0  0  0
 16 54  1  0  0  0  0
 18 17  1  0  0  0  0
 18 19  1  0  0  0  0
 49 18  1  0  0  0  0
 19 20  1  0  0  0  0
 21 20  1  0  0  0  0
 20 46  1  0  0  0  0
 21 22  1  0  0  0  0
 37 21  2  0  0  0  0
 22 23  2  0  0  0  0
 39 22  1  0  0  0  0
 23 24  1  0  0  0  0
 25 24  2  0  0  0  0
 24 35  1  0  0  0  0
 26 25  1  0  0  0  0
 25 37  1  0  0  0  0
 26 27  2  0  0  0  0
 28 26  1  0  0  0  0
 28 29  2  0  0  0  0
 33 28  1  0  0  0  0
 29 30  1  0  0  0  0
 35 29  1  0  0  0  0
 30 31  2  0  0  0  0
 31 32  1  0  0  0  0
 32 33  2  0  0  0  0
 33 34  1  0  0  0  0
 35 36  2  0  0  0  0
 37 38  1  0  0  0  0
 39 40  1  0  0  0  0
 44 39  1  0  0  0  0
 40 41  1  0  0  0  0
 40 43  2  0  0  0  0
 41 42  1  0  0  0  0
 44 45  1  0  0  0  0
 46 44  1  0  0  0  0
 44 47  1  0  0  0  0
 47 48  1  0  0  0  0
 50 49  1  0  0  0  0
 50 51  1  0  0  0  0
 51 52  1  0  0  0  0
 51 53  1  0  0  0  0
 56 55  1  0  0  0  0
 56 57  1  0  0  0  0
M  END
> <Inchi_key>
USZYSDMBJDPRIF-UHFFFAOYSA-N

> <Source>
Kotsampasakou

> <ID>
EK0010

> <H_MFHB>


> <CAS>


> <Cholestasis>
0

> <Name>
aclarubicin

> <Class>
0


$$$$