
  -INDIGO-08031710012D

 26 29  0  0  0  0  0  0  0  0999 V2000
   -1.1572   -8.6562    0.0000 S   0  0  0  0  0  0  0  0  0  0  0  0
   -2.4563   -9.4062    0.0000 O   0  0  0  0  0  0  0  0  0  0  0  0
   -1.1572   -7.1563    0.0000 C   0  0  0  0  0  0  0  0  0  0  0  0
    0.1418   -9.4062    0.0000 C   0  0  0  0  0  0  0  0  0  0  0  0
   -2.4563   -6.4061    0.0000 C   0  0  0  0  0  0  0  0  0  0  0  0
    0.1418   -6.4061    0.0000 C   0  0  0  0  0  0  0  0  0  0  0  0
   -2.4563   -4.9062    0.0000 C   0  0  0  0  0  0  0  0  0  0  0  0
    0.1418   -4.9062    0.0000 C   0  0  0  0  0  0  0  0  0  0  0  0
   -1.1572   -4.1562    0.0000 C   0  0  0  0  0  0  0  0  0  0  0  0
    1.4409   -4.1562    0.0000 N   0  0  0  0  0  0  0  0  0  0  0  0
   -1.1572   -2.6563    0.0000 S   0  0  0  0  0  0  0  0  0  0  0  0
    2.7398   -4.9062    0.0000 C   0  0  0  0  0  0  0  0  0  0  0  0
    1.4409   -2.6563    0.0000 C   0  0  0  0  0  0  0  0  0  0  0  0
    0.1418   -1.9061    0.0000 C   0  0  0  0  0  0  0  0  0  0  0  0
    4.0388   -4.1562    0.0000 C   0  0  0  0  0  0  0  0  0  0  0  0
    2.7398   -1.9061    0.0000 C   0  0  0  0  0  0  0  0  0  0  0  0
    0.1418   -0.4062    0.0000 C   0  0  0  0  0  0  0  0  0  0  0  0
    5.3379   -4.9062    0.0000 C   0  0  0  0  0  0  0  0  0  0  0  0
    2.7398   -0.4062    0.0000 C   0  0  0  0  0  0  0  0  0  0  0  0
    1.4409    0.3438    0.0000 C   0  0  0  0  0  0  0  0  0  0  0  0
    6.6369   -4.1562    0.0000 N   0  0  0  0  0  0  0  0  0  0  0  0
    5.3379   -6.4061    0.0000 C   0  0  0  0  0  0  0  0  0  0  0  0
    6.6369   -2.6563    0.0000 C   0  0  0  0  0  0  0  0  0  0  0  0
    7.9360   -4.9062    0.0000 C   0  0  0  0  0  0  0  0  0  0  0  0
    6.6369   -7.1563    0.0000 C   0  0  0  0  0  0  0  0  0  0  0  0
    7.9360   -6.4061    0.0000 C   0  0  0  0  0  0  0  0  0  0  0  0
  1  2  1  0  0  0  0
  1  3  1  0  0  0  0
  1  4  1  0  0  0  0
  5  3  2  0  0  0  0
  3  6  1  0  0  0  0
  7  5  1  0  0  0  0
  6  8  2  0  0  0  0
  9  7  2  0  0  0  0
 10  8  1  0  0  0  0
  8  9  1  0  0  0  0
  9 11  1  0  0  0  0
 10 12  1  0  0  0  0
 13 10  1  0  0  0  0
 11 14  1  0  0  0  0
 12 15  1  0  0  0  0
 16 13  1  0  0  0  0
 13 14  2  0  0  0  0
 14 17  1  0  0  0  0
 15 18  1  0  0  0  0
 19 16  2  0  0  0  0
 17 20  2  0  0  0  0
 21 18  1  0  0  0  0
 18 22  1  0  0  0  0
 20 19  1  0  0  0  0
 21 23  1  0  0  0  0
 24 21  1  0  0  0  0
 22 25  1  0  0  0  0
 26 24  1  0  0  0  0
 25 26  1  0  0  0  0
M  CHG  2   1   1   2  -1
M  END
> <Inchi_key>
SLVMESMUVMCQIY-UHFFFAOYSA-N

> <Source>
Mulliner

> <ID>
HT1320

> <H_MFHB>
0

> <CAS>


> <Cholestasis>


> <Name>
mesoridazine

> <Class>
0

$$$$