
  -INDIGO-08031710012D

 28 30  0  0  0  0  0  0  0  0999 V2000
   -0.0039   -0.0773    0.0000 N   0  0  0  0  0  0  0  0  0  0  0  0
    1.4884   -0.2295    0.0000 C   0  0  0  0  0  0  0  0  0  0  0  0
    2.4886    0.8882    0.0000 N   0  0  0  0  0  0  0  0  0  0  0  0
    3.8607    0.2823    0.0000 C   0  0  0  0  0  0  0  0  0  0  0  0
    5.1574    1.0363    0.0000 C   0  0  0  0  0  0  0  0  0  0  0  0
    6.4588    0.2903    0.0000 C   0  0  0  0  0  0  0  0  0  0  0  0
    6.4636   -1.2097    0.0000 O   0  0  0  0  0  0  0  0  0  0  0  0
    7.7556    1.0442    0.0000 N   0  0  0  0  0  0  0  0  0  0  0  0
    9.0570    0.2982    0.0000 C   0  0  0  0  0  0  0  0  0  0  0  0
    9.0614   -1.2018    0.0000 C   0  0  0  0  0  0  0  0  0  0  0  0
   10.3628   -1.9478    0.0000 C   0  0  0  0  0  0  0  0  0  0  0  0
   11.6595   -1.1939    0.0000 C   0  0  0  0  0  0  0  0  0  0  0  0
   12.9610   -1.9399    0.0000 C   0  0  0  0  0  0  0  0  0  0  0  0
   14.2577   -1.1859    0.0000 C   0  0  0  0  0  0  0  0  0  0  0  0
   15.5588   -1.9319    0.0000 N   0  0  0  0  0  0  0  0  0  0  0  0
   16.8558   -1.1780    0.0000 C   0  0  0  0  0  0  0  0  0  0  0  0
   18.1569   -1.9240    0.0000 C   0  0  0  0  0  0  0  0  0  0  0  0
   18.1616   -3.4240    0.0000 O   0  0  0  0  0  0  0  0  0  0  0  0
   19.4536   -1.1700    0.0000 C   0  0  0  0  0  0  0  0  0  0  0  0
   19.4493    0.3300    0.0000 C   0  0  0  0  0  0  0  0  0  0  0  0
   20.7460    1.0839    0.0000 C   0  0  0  0  0  0  0  0  0  0  0  0
   22.0471    0.3379    0.0000 C   0  0  0  0  0  0  0  0  0  0  0  0
   22.0518   -1.1621    0.0000 C   0  0  0  0  0  0  0  0  0  0  0  0
   20.7551   -1.9161    0.0000 C   0  0  0  0  0  0  0  0  0  0  0  0
   11.6551    0.3061    0.0000 C   0  0  0  0  0  0  0  0  0  0  0  0
   10.3537    1.0522    0.0000 C   0  0  0  0  0  0  0  0  0  0  0  0
    3.7086   -1.2099    0.0000 C   0  0  0  0  0  0  0  0  0  0  0  0
    2.2422   -1.5263    0.0000 S   0  0  0  0  0  0  0  0  0  0  0  0
  1  2  1  0  0  0  0
  3  2  2  0  0  0  0
  2 28  1  0  0  0  0
  4  3  1  0  0  0  0
  4  5  1  0  0  0  0
 27  4  2  0  0  0  0
  5  6  1  0  0  0  0
  6  7  2  0  0  0  0
  6  8  1  0  0  0  0
  8  9  1  0  0  0  0
 10  9  2  0  0  0  0
  9 26  1  0  0  0  0
 11 10  1  0  0  0  0
 12 11  2  0  0  0  0
 12 13  1  0  0  0  0
 25 12  1  0  0  0  0
 13 14  1  0  0  0  0
 14 15  1  0  0  0  0
 15 16  1  0  0  0  0
 16 17  1  0  0  0  0
 17 18  1  0  0  0  0
 17 19  1  0  0  0  0
 20 19  2  0  0  0  0
 19 24  1  0  0  0  0
 21 20  1  0  0  0  0
 22 21  2  0  0  0  0
 23 22  1  0  0  0  0
 24 23  2  0  0  0  0
 26 25  2  0  0  0  0
 28 27  1  0  0  0  0
M  END
> <Inchi_key>
PBAPPPCECJKMCM-UHFFFAOYSA-N

> <Source>
Mulliner

> <ID>
HT1410

> <H_MFHB>
0

> <CAS>


> <Cholestasis>


> <Name>
mirabegron

> <Class>
0

$$$$