
  -INDIGO-08031710012D

 14 15  0  0  0  0  0  0  0  0999 V2000
    1.1514   -0.8443    0.0000 C   0  0  0  0  0  0  0  0  0  0  0  0
    0.7005    0.5863    0.0000 N   0  0  0  0  0  0  0  0  0  0  0  0
    1.5929    1.7920    0.0000 N   0  0  0  0  0  0  0  0  0  0  0  0
    0.7219    3.0132    0.0000 C   0  0  0  0  0  0  0  0  0  0  0  0
    1.1981    4.4357    0.0000 O   0  0  0  0  0  0  0  0  0  0  0  0
   -0.7087    2.5624    0.0000 C   0  0  0  0  0  0  0  0  0  0  0  0
   -0.7219    1.0624    0.0000 C   0  0  0  0  0  0  0  0  0  0  0  0
   -1.9432    0.1915    0.0000 C   0  0  0  0  0  0  0  0  0  0  0  0
    3.0928    1.7787    0.0000 C   0  0  0  0  0  0  0  0  0  0  0  0
    3.8313    0.4731    0.0000 C   0  0  0  0  0  0  0  0  0  0  0  0
    5.3312    0.4598    0.0000 C   0  0  0  0  0  0  0  0  0  0  0  0
    6.0927    1.7522    0.0000 C   0  0  0  0  0  0  0  0  0  0  0  0
    5.3542    3.0578    0.0000 C   0  0  0  0  0  0  0  0  0  0  0  0
    3.8543    3.0711    0.0000 C   0  0  0  0  0  0  0  0  0  0  0  0
  1  2  1  0  0  0  0
  3  2  1  0  0  0  0
  2  7  1  0  0  0  0
  4  3  1  0  0  0  0
  3  9  1  0  0  0  0
  4  5  2  0  0  0  0
  6  4  1  0  0  0  0
  7  6  2  0  0  0  0
  7  8  1  0  0  0  0
 10  9  2  0  0  0  0
  9 14  1  0  0  0  0
 11 10  1  0  0  0  0
 12 11  2  0  0  0  0
 13 12  1  0  0  0  0
 14 13  2  0  0  0  0
M  END
> <Inchi_key>
VEQOALNAAJBPNY-UHFFFAOYSA-N

> <Source>
Mulliner

> <ID>
HT0167

> <H_MFHB>
0

> <CAS>


> <Cholestasis>


> <Name>
antipyrine

> <Class>
0

$$$$