
  -INDIGO-08031710012D

 27 28  0  0  0  0  0  0  0  0999 V2000
   -0.9858   -3.6752    0.0000 C   0  0  0  0  0  0  0  0  0  0  0  0
    0.3128   -4.4259    0.0000 C   0  0  0  0  0  0  0  0  0  0  0  0
    1.6121   -3.6766    0.0000 C   0  0  0  0  0  0  0  0  0  0  0  0
    2.9110   -4.4273    0.0000 C   0  0  0  0  0  0  0  0  0  0  0  0
    4.2103   -3.6780    0.0000 C   0  0  0  0  0  0  0  0  0  0  0  0
    4.9609   -2.3794    0.0000 F   0  0  0  0  0  0  0  0  0  0  0  0
    3.4609   -2.3786    0.0000 F   0  0  0  0  0  0  0  0  0  0  0  0
    5.5089   -4.4287    0.0000 C   0  0  0  0  0  0  0  0  0  0  0  0
    4.2032   -5.1666    0.0000 O   0  0  0  0  0  0  0  0  0  0  0  0
    6.2753   -5.7182    0.0000 C   0  0  0  0  0  0  0  0  0  0  0  0
    7.7750   -5.6994    0.0000 C   0  0  0  0  0  0  0  0  0  0  0  0
    8.5088   -4.3911    0.0000 C   0  0  0  0  0  0  0  0  0  0  0  0
    9.9720   -4.0608    0.0000 C   0  0  0  0  0  0  0  0  0  0  0  0
   11.0990   -5.0504    0.0000 C   0  0  0  0  0  0  0  0  0  0  0  0
   12.5199   -4.5690    0.0000 C   0  0  0  0  0  0  0  0  0  0  0  0
   13.6471   -5.5587    0.0000 C   0  0  0  0  0  0  0  0  0  0  0  0
   15.0677   -5.0773    0.0000 C   0  0  0  0  0  0  0  0  0  0  0  0
   16.1950   -6.0669    0.0000 C   0  0  0  0  0  0  0  0  0  0  0  0
   17.6156   -5.5855    0.0000 C   0  0  0  0  0  0  0  0  0  0  0  0
   18.7428   -6.5751    0.0000 C   0  0  0  0  0  0  0  0  0  0  0  0
   18.4495   -8.0462    0.0000 O   0  0  0  0  0  0  0  0  0  0  0  0
   20.1634   -6.0937    0.0000 O   0  0  0  0  0  0  0  0  0  0  0  0
   10.1101   -2.5672    0.0000 C   0  0  0  0  0  0  0  0  0  0  0  0
   11.3994   -1.8009    0.0000 O   0  0  0  0  0  0  0  0  0  0  0  0
    8.7322   -1.9743    0.0000 C   0  0  0  0  0  0  0  0  0  0  0  0
    7.7424   -3.1015    0.0000 C   0  0  0  0  0  0  0  0  0  0  0  0
    6.2427   -3.1204    0.0000 O   0  0  0  0  0  0  0  0  0  0  0  0
  1  2  1  0  0  0  0
  2  3  1  0  0  0  0
  3  4  1  0  0  0  0
  4  5  1  0  0  0  0
  5  6  1  0  0  0  0
  5  7  1  0  0  0  0
  5  8  1  0  0  0  0
  8  9  1  0  0  0  0
 10  8  1  0  0  0  0
  8 27  1  0  0  0  0
 11 10  1  0  0  0  0
 12 11  1  0  0  0  0
 13 12  1  0  0  0  0
 12 26  1  0  0  0  0
 13 14  1  0  0  0  0
 23 13  1  0  0  0  0
 14 15  1  0  0  0  0
 15 16  1  0  0  0  0
 16 17  1  0  0  0  0
 17 18  1  0  0  0  0
 18 19  1  0  0  0  0
 19 20  1  0  0  0  0
 20 21  2  0  0  0  0
 20 22  1  0  0  0  0
 23 24  2  0  0  0  0
 25 23  1  0  0  0  0
 26 25  1  0  0  0  0
 27 26  1  0  0  0  0
M  END
> <Inchi_key>
WGFOBBZOWHGYQH-UHFFFAOYSA-N

> <Source>
Mulliner

> <ID>
HT1254

> <H_MFHB>
0

> <CAS>


> <Cholestasis>


> <Name>
lubiprostone

> <Class>
0

$$$$