

  -INDIGO-08031710012D

 18 20  0  0  0  0  0  0  0  0999 V2000
   10.8245   -5.4259    0.0000 C   0  0  0  0  0  0  0  0  0  0  0  0
    9.3268   -5.3421    0.0000 N   0  0  0  0  0  0  0  0  0  0  0  0
    8.6506   -4.0032    0.0000 C   0  0  0  0  0  0  0  0  0  0  0  0
    9.4721   -2.7481    0.0000 C   0  0  0  0  0  0  0  0  0  0  0  0
    8.7958   -1.4092    0.0000 C   0  0  0  0  0  0  0  0  0  0  0  0
    7.2982   -1.3253    0.0000 C   0  0  0  0  0  0  0  0  0  0  0  0
    6.3583   -0.1563    0.0000 N   0  0  0  0  0  0  0  0  0  0  0  0
    4.9562   -0.6888    0.0000 C   0  0  0  0  0  0  0  0  0  0  0  0
    3.6221   -0.0031    0.0000 C   0  0  0  0  0  0  0  0  0  0  0  0
    2.3610   -0.8156    0.0000 C   0  0  0  0  0  0  0  0  0  0  0  0
    2.4343   -2.3138    0.0000 C   0  0  0  0  0  0  0  0  0  0  0  0
    3.7682   -2.9995    0.0000 C   0  0  0  0  0  0  0  0  0  0  0  0
    5.0293   -2.1870    0.0000 C   0  0  0  0  0  0  0  0  0  0  0  0
    6.4767   -2.5804    0.0000 C   0  0  0  0  0  0  0  0  0  0  0  0
    7.1530   -3.9194    0.0000 C   0  0  0  0  0  0  0  0  0  0  0  0
    1.1734   -3.1263    0.0000 C   0  0  0  0  0  0  0  0  0  0  0  0
    1.2465   -4.6245    0.0000 O   0  0  0  0  0  0  0  0  0  0  0  0
   -0.1607   -2.4405    0.0000 N   0  0  0  0  0  0  0  0  0  0  0  0
  1  2  1  0  0  0  0
  2  3  1  0  0  0  0
  4  3  1  0  0  0  0
  3 15  1  0  0  0  0
  5  4  1  0  0  0  0
  6  5  1  0  0  0  0
  7  6  1  0  0  0  0
  6 14  2  0  0  0  0
  8  7  1  0  0  0  0
  9  8  1  0  0  0  0
  8 13  2  0  0  0  0
 10  9  2  0  0  0  0
 11 10  1  0  0  0  0
 12 11  2  0  0  0  0
 11 16  1  0  0  0  0
 13 12  1  0  0  0  0
 14 13  1  0  0  0  0
 15 14  1  0  0  0  0
 16 17  2  0  0  0  0
 16 18  1  0  0  0  0
M  END
> <Inchi_key>
XPSQPHWEGNHMSK-UHFFFAOYSA-N

> <Source>
Mulliner

> <ID>
HT0942

> <H_MFHB>
0

> <CAS>


> <Cholestasis>


> <Name>
frovatriptan succinate;frovatriptan

> <Class>
0


$$$$