
  -INDIGO-08031710012D

 19 19  0  0  0  0  0  0  0  0999 V2000
    0.3552    2.5297    0.0000 C   0  0  0  0  0  0  0  0  0  0  0  0
    1.1052    1.2307    0.0000 C   0  0  0  0  0  0  0  0  0  0  0  0
    0.3552   -0.0684    0.0000 C   0  0  0  0  0  0  0  0  0  0  0  0
   -1.1447   -0.0684    0.0000 C   0  0  0  0  0  0  0  0  0  0  0  0
   -1.8946   -1.3674    0.0000 C   0  0  0  0  0  0  0  0  0  0  0  0
   -3.3947   -1.3674    0.0000 C   0  0  0  0  0  0  0  0  0  0  0  0
   -4.1447   -0.0684    0.0000 C   0  0  0  0  0  0  0  0  0  0  0  0
   -3.3947    1.2307    0.0000 C   0  0  0  0  0  0  0  0  0  0  0  0
   -1.8946    1.2307    0.0000 C   0  0  0  0  0  0  0  0  0  0  0  0
    2.6053    1.2307    0.0000 N   0  0  0  0  0  0  0  0  0  0  0  0
    3.3553    2.5297    0.0000 C   0  0  0  0  0  0  0  0  0  0  0  0
    2.6053    3.8287    0.0000 O   0  0  0  0  0  0  0  0  0  0  0  0
    4.8554    2.5297    0.0000 C   0  0  0  0  0  0  0  0  0  0  0  0
    5.6054    3.8287    0.0000 N   0  0  0  0  0  0  0  0  0  0  0  0
    5.6054    1.2307    0.0000 C   0  0  0  0  0  0  0  0  0  0  0  0
    7.1053    1.2307    0.0000 C   0  0  0  0  0  0  0  0  0  0  0  0
    7.8552   -0.0684    0.0000 C   0  0  0  0  0  0  0  0  0  0  0  0
    9.3553   -0.0684    0.0000 C   0  0  0  0  0  0  0  0  0  0  0  0
   10.1053   -1.3674    0.0000 N   0  0  0  0  0  0  0  0  0  0  0  0
  1  2  1  0  0  0  0
  2  3  1  0  0  0  0
  2 10  1  0  0  0  0
  3  4  1  0  0  0  0
  5  4  2  0  0  0  0
  4  9  1  0  0  0  0
  6  5  1  0  0  0  0
  7  6  2  0  0  0  0
  8  7  1  0  0  0  0
  9  8  2  0  0  0  0
 10 11  1  0  0  0  0
 11 12  2  0  0  0  0
 11 13  1  0  0  0  0
 13 14  1  0  0  0  0
 13 15  1  0  0  0  0
 15 16  1  0  0  0  0
 16 17  1  0  0  0  0
 17 18  1  0  0  0  0
 18 19  1  0  0  0  0
M  END
> <Inchi_key>
VOBHXZCDAVEXEY-UHFFFAOYSA-N

> <Source>
Mulliner

> <ID>
HT1217

> <H_MFHB>
0

> <CAS>


> <Cholestasis>


> <Name>
lisdexamfetamine dimesylate;lisdexamfetamine

> <Class>
0

$$$$