

  -INDIGO-08031710012D

 21 22  0  0  0  0  0  0  0  0999 V2000
    3.9286    2.4744    0.0000 C   0  0  0  0  0  0  0  0  0  0  0  0
    4.6786    1.1753    0.0000 C   0  0  0  0  0  0  0  0  0  0  0  0
    3.9286   -0.1237    0.0000 N   0  0  0  0  0  0  0  0  0  0  0  0
    2.4285   -0.1237    0.0000 C   0  0  0  0  0  0  0  0  0  0  0  0
    1.6785   -1.4228    0.0000 C   0  0  0  0  0  0  0  0  0  0  0  0
    0.1786   -1.4228    0.0000 C   0  0  0  0  0  0  0  0  0  0  0  0
   -0.5713   -2.7218    0.0000 C   0  0  0  0  0  0  0  0  0  0  0  0
    0.1786   -4.0208    0.0000 C   0  0  0  0  0  0  0  0  0  0  0  0
   -0.5713   -5.3199    0.0000 C   0  0  0  0  0  0  0  0  0  0  0  0
   -2.0714   -5.3199    0.0000 C   0  0  0  0  0  0  0  0  0  0  0  0
   -2.8214   -4.0208    0.0000 C   0  0  0  0  0  0  0  0  0  0  0  0
   -2.0714   -2.7218    0.0000 C   0  0  0  0  0  0  0  0  0  0  0  0
    4.6786   -1.4228    0.0000 C   0  0  0  0  0  0  0  0  0  0  0  0
    6.1787   -1.4228    0.0000 C   0  0  0  0  0  0  0  0  0  0  0  0
    6.9287   -2.7218    0.0000 C   0  0  0  0  0  0  0  0  0  0  0  0
    8.4286   -2.7218    0.0000 C   0  0  0  0  0  0  0  0  0  0  0  0
    9.1785   -1.4228    0.0000 C   0  0  0  0  0  0  0  0  0  0  0  0
   10.6786   -1.4228    0.0000 C   0  0  0  0  0  0  0  0  0  0  0  0
   11.4286   -2.7218    0.0000 C   0  0  0  0  0  0  0  0  0  0  0  0
   10.6786   -4.0208    0.0000 C   0  0  0  0  0  0  0  0  0  0  0  0
    9.1785   -4.0208    0.0000 C   0  0  0  0  0  0  0  0  0  0  0  0
  1  2  1  0  0  0  0
  2  3  1  0  0  0  0
  3  4  1  0  0  0  0
  3 13  1  0  0  0  0
  4  5  1  0  0  0  0
  5  6  1  0  0  0  0
  6  7  1  0  0  0  0
  8  7  2  0  0  0  0
  7 12  1  0  0  0  0
  9  8  1  0  0  0  0
 10  9  2  0  0  0  0
 11 10  1  0  0  0  0
 12 11  2  0  0  0  0
 13 14  1  0  0  0  0
 14 15  1  0  0  0  0
 15 16  1  0  0  0  0
 17 16  2  0  0  0  0
 16 21  1  0  0  0  0
 18 17  1  0  0  0  0
 19 18  2  0  0  0  0
 20 19  1  0  0  0  0
 21 20  2  0  0  0  0
M  END
> <Inchi_key>
ZPFXAOWNKLFJDN-UHFFFAOYSA-N

> <Source>
Mulliner

> <ID>
HT0120

> <H_MFHB>
0

> <CAS>


> <Cholestasis>


> <Name>
alverine

> <Class>
0


$$$$