

  -INDIGO-08031710012D

 16 18  0  0  0  0  0  0  0  0999 V2000
    0.9113    0.6585    0.0000 C   0  0  0  0  0  0  0  0  0  0  0  0
    2.2102    1.4085    0.0000 C   0  0  0  0  0  0  0  0  0  0  0  0
    2.3671    2.9003    0.0000 N   0  0  0  0  0  0  0  0  0  0  0  0
    3.8343    3.2122    0.0000 C   0  0  0  0  0  0  0  0  0  0  0  0
    4.5843    1.9131    0.0000 C   0  0  0  0  0  0  0  0  0  0  0  0
    3.5806    0.7984    0.0000 N   0  0  0  0  0  0  0  0  0  0  0  0
   -0.3877    1.4085    0.0000 C   0  0  0  0  0  0  0  0  0  0  0  0
   -0.3877    2.9085    0.0000 C   0  0  0  0  0  0  0  0  0  0  0  0
   -1.6868    3.6585    0.0000 C   0  0  0  0  0  0  0  0  0  0  0  0
   -2.9858    2.9085    0.0000 C   0  0  0  0  0  0  0  0  0  0  0  0
   -4.2849    3.6585    0.0000 C   0  0  0  0  0  0  0  0  0  0  0  0
   -5.5839    2.9085    0.0000 C   0  0  0  0  0  0  0  0  0  0  0  0
   -5.5839    1.4085    0.0000 C   0  0  0  0  0  0  0  0  0  0  0  0
   -4.2849    0.6585    0.0000 C   0  0  0  0  0  0  0  0  0  0  0  0
   -2.9858    1.4085    0.0000 C   0  0  0  0  0  0  0  0  0  0  0  0
   -1.6868    0.6585    0.0000 C   0  0  0  0  0  0  0  0  0  0  0  0
  1  2  1  0  0  0  0
  1  7  1  0  0  0  0
  3  2  2  0  0  0  0
  2  6  1  0  0  0  0
  4  3  1  0  0  0  0
  5  4  1  0  0  0  0
  6  5  1  0  0  0  0
  8  7  2  0  0  0  0
  7 16  1  0  0  0  0
  9  8  1  0  0  0  0
 10  9  2  0  0  0  0
 11 10  1  0  0  0  0
 10 15  1  0  0  0  0
 12 11  2  0  0  0  0
 13 12  1  0  0  0  0
 14 13  2  0  0  0  0
 15 14  1  0  0  0  0
 16 15  2  0  0  0  0
M  END
> <Inchi_key>
VIXRKFBKWOHVBR-UHFFFAOYSA-N

> <Source>
Mulliner

> <ID>
HT2903

> <H_MFHB>
0

> <CAS>


> <Cholestasis>


> <Name>


> <Class>
0


$$$$