

  -INDIGO-08031710012D

  6  5  0  0  0  0  0  0  0  0999 V2000
   -0.3481   -1.2990    0.0000 O   0  0  0  0  0  0  0  0  0  0  0  0
    0.9510   -2.0490    0.0000 C   0  0  0  0  0  0  0  0  0  0  0  0
    2.2500   -1.2990    0.0000 C   0  0  0  0  0  0  0  0  0  0  0  0
    2.2500    0.2010    0.0000 S   0  0  0  0  0  0  0  0  0  0  0  0
    3.5490   -2.0490    0.0000 C   0  0  0  0  0  0  0  0  0  0  0  0
    4.8481   -1.2990    0.0000 S   0  0  0  0  0  0  0  0  0  0  0  0
  1  2  1  0  0  0  0
  2  3  1  0  0  0  0
  3  4  1  0  0  0  0
  3  5  1  0  0  0  0
  5  6  1  0  0  0  0
M  END
> <Inchi_key>
WQABCVAJNWAXTE-UHFFFAOYSA-N

> <Source>
Mulliner

> <ID>
HT0676

> <H_MFHB>
0

> <CAS>


> <Cholestasis>


> <Name>
dimercaprol

> <Class>
0


$$$$