
  -INDIGO-08031710012D

 27 29  0  0  0  0  0  0  0  0999 V2000
    9.8216    6.7984    0.0000 C   0  0  0  0  0  0  0  0  0  0  0  0
    8.5227    7.5485    0.0000 C   0  0  0  0  0  0  0  0  0  0  0  0
    8.5227    9.0484    0.0000 O   0  0  0  0  0  0  0  0  0  0  0  0
    7.2234    6.7984    0.0000 O   0  0  0  0  0  0  0  0  0  0  0  0
    7.2234    5.2984    0.0000 C   0  0  0  0  0  0  0  0  0  0  0  0
    8.5227    4.5484    0.0000 C   0  0  0  0  0  0  0  0  0  0  0  0
    8.5227    3.0484    0.0000 C   0  0  0  0  0  0  0  0  0  0  0  0
    7.2234    2.2983    0.0000 C   0  0  0  0  0  0  0  0  0  0  0  0
    5.9245    3.0484    0.0000 C   0  0  0  0  0  0  0  0  0  0  0  0
    4.6256    2.2983    0.0000 C   0  0  0  0  0  0  0  0  0  0  0  0
    4.6256    0.7984    0.0000 O   0  0  0  0  0  0  0  0  0  0  0  0
    3.3263    3.0484    0.0000 C   0  0  0  0  0  0  0  0  0  0  0  0
    2.0274    2.2983    0.0000 C   0  0  0  0  0  0  0  0  0  0  0  0
    0.7283    3.0484    0.0000 C   0  0  0  0  0  0  0  0  0  0  0  0
    0.7283    4.5484    0.0000 C   0  0  0  0  0  0  0  0  0  0  0  0
    2.0274    5.2984    0.0000 C   0  0  0  0  0  0  0  0  0  0  0  0
    2.0274    6.7984    0.0000 O   0  0  0  0  0  0  0  0  0  0  0  0
    0.7283    7.5485    0.0000 C   0  0  0  0  0  0  0  0  0  0  0  0
    0.7283    9.0484    0.0000 O   0  0  0  0  0  0  0  0  0  0  0  0
   -0.5708    6.7984    0.0000 C   0  0  0  0  0  0  0  0  0  0  0  0
    3.3263    4.5484    0.0000 C   0  0  0  0  0  0  0  0  0  0  0  0
    4.6256    5.2984    0.0000 C   0  0  0  0  0  0  0  0  0  0  0  0
    4.6256    6.7984    0.0000 O   0  0  0  0  0  0  0  0  0  0  0  0
    5.9245    4.5484    0.0000 C   0  0  0  0  0  0  0  0  0  0  0  0
   -0.5708    2.2983    0.0000 C   0  0  0  0  0  0  0  0  0  0  0  0
   -1.8697    3.0484    0.0000 O   0  0  0  0  0  0  0  0  0  0  0  0
   -0.5708    0.7984    0.0000 O   0  0  0  0  0  0  0  0  0  0  0  0
  1  2  1  0  0  0  0
  2  3  2  0  0  0  0
  2  4  1  0  0  0  0
  4  5  1  0  0  0  0
  6  5  2  0  0  0  0
  5 24  1  0  0  0  0
  7  6  1  0  0  0  0
  8  7  2  0  0  0  0
  9  8  1  0  0  0  0
 10  9  1  0  0  0  0
  9 24  2  0  0  0  0
 10 11  2  0  0  0  0
 12 10  1  0  0  0  0
 13 12  2  0  0  0  0
 12 21  1  0  0  0  0
 14 13  1  0  0  0  0
 15 14  2  0  0  0  0
 14 25  1  0  0  0  0
 16 15  1  0  0  0  0
 16 17  1  0  0  0  0
 21 16  2  0  0  0  0
 17 18  1  0  0  0  0
 18 19  2  0  0  0  0
 18 20  1  0  0  0  0
 22 21  1  0  0  0  0
 22 23  2  0  0  0  0
 24 22  1  0  0  0  0
 25 26  2  0  0  0  0
 25 27  1  0  0  0  0
M  END
> <Inchi_key>
TYNLGDBUJLVSMA-UHFFFAOYSA-N

> <Source>
Mulliner

> <ID>
HT0633

> <H_MFHB>
0

> <CAS>


> <Cholestasis>


> <Name>
diacerein

> <Class>
0

$$$$