
  -INDIGO-08031710012D

 31 34  0  0  0  0  0  0  0  0999 V2000
   17.0249   -7.2457    0.0000 C   0  0  0  0  0  0  0  0  0  0  0  0
   15.5297   -7.1237    0.0000 C   0  0  0  0  0  0  0  0  0  0  0  0
   14.8880   -5.7679    0.0000 C   0  0  0  0  0  0  0  0  0  0  0  0
   13.3928   -5.6461    0.0000 C   0  0  0  0  0  0  0  0  0  0  0  0
   12.7511   -4.2905    0.0000 C   0  0  0  0  0  0  0  0  0  0  0  0
   13.4705   -2.9743    0.0000 N   0  0  0  0  0  0  0  0  0  0  0  0
   12.4412   -1.8832    0.0000 C   0  0  0  0  0  0  0  0  0  0  0  0
   12.7186   -0.4091    0.0000 C   0  0  0  0  0  0  0  0  0  0  0  0
   14.1340    0.0876    0.0000 C   0  0  0  0  0  0  0  0  0  0  0  0
   14.4117    1.5617    0.0000 C   0  0  0  0  0  0  0  0  0  0  0  0
   15.8271    2.0583    0.0000 C   0  0  0  0  0  0  0  0  0  0  0  0
   11.0854   -2.5251    0.0000 N   0  0  0  0  0  0  0  0  0  0  0  0
    9.7692   -1.8056    0.0000 C   0  0  0  0  0  0  0  0  0  0  0  0
    8.4880   -2.5857    0.0000 C   0  0  0  0  0  0  0  0  0  0  0  0
    8.5230   -4.0853    0.0000 C   0  0  0  0  0  0  0  0  0  0  0  0
    7.2417   -4.8653    0.0000 C   0  0  0  0  0  0  0  0  0  0  0  0
    5.9255   -4.1458    0.0000 C   0  0  0  0  0  0  0  0  0  0  0  0
    5.8906   -2.6463    0.0000 N   0  0  0  0  0  0  0  0  0  0  0  0
    7.1718   -1.8662    0.0000 C   0  0  0  0  0  0  0  0  0  0  0  0
    4.6443   -4.9259    0.0000 C   0  0  0  0  0  0  0  0  0  0  0  0
    4.6795   -6.4255    0.0000 C   0  0  0  0  0  0  0  0  0  0  0  0
    3.3983   -7.2057    0.0000 C   0  0  0  0  0  0  0  0  0  0  0  0
    2.0821   -6.4862    0.0000 C   0  0  0  0  0  0  0  0  0  0  0  0
    2.0471   -4.9865    0.0000 C   0  0  0  0  0  0  0  0  0  0  0  0
    3.3281   -4.2064    0.0000 C   0  0  0  0  0  0  0  0  0  0  0  0
    3.2934   -2.7068    0.0000 C   0  0  0  0  0  0  0  0  0  0  0  0
    2.0594   -1.8537    0.0000 N   0  0  0  0  0  0  0  0  0  0  0  0
    2.4896   -0.4167    0.0000 N   0  0  0  0  0  0  0  0  0  0  0  0
    3.9893   -0.3817    0.0000 N   0  0  0  0  0  0  0  0  0  0  0  0
    4.4859   -1.7970    0.0000 N   0  0  0  0  0  0  0  0  0  0  0  0
   11.2770   -4.0128    0.0000 N   0  0  0  0  0  0  0  0  0  0  0  0
  1  2  1  0  0  0  0
  2  3  1  0  0  0  0
  3  4  1  0  0  0  0
  4  5  1  0  0  0  0
  6  5  1  0  0  0  0
  5 31  2  0  0  0  0
  7  6  2  0  0  0  0
  7  8  1  0  0  0  0
 12  7  1  0  0  0  0
  8  9  1  0  0  0  0
  9 10  1  0  0  0  0
 10 11  1  0  0  0  0
 12 13  1  0  0  0  0
 31 12  1  0  0  0  0
 13 14  1  0  0  0  0
 15 14  2  0  0  0  0
 14 19  1  0  0  0  0
 16 15  1  0  0  0  0
 17 16  2  0  0  0  0
 18 17  1  0  0  0  0
 17 20  1  0  0  0  0
 19 18  2  0  0  0  0
 21 20  2  0  0  0  0
 20 25  1  0  0  0  0
 22 21  1  0  0  0  0
 23 22  2  0  0  0  0
 24 23  1  0  0  0  0
 25 24  2  0  0  0  0
 25 26  1  0  0  0  0
 27 26  1  0  0  0  0
 26 30  2  0  0  0  0
 28 27  2  0  0  0  0
 29 28  1  0  0  0  0
 30 29  1  0  0  0  0
M  END
> <Inchi_key>
YONOBYIBNBCDSJ-UHFFFAOYSA-N

> <Source>
Mulliner

> <ID>
HT0931

> <H_MFHB>
0

> <CAS>


> <Cholestasis>


> <Name>
forasartan

> <Class>
0

$$$$