

  -INDIGO-08031710012D

 26 29  0  0  0  0  0  0  0  0999 V2000
    6.7092    1.3638    0.0000 F   0  0  0  0  0  0  0  0  0  0  0  0
    6.7216    2.8638    0.0000 C   0  0  0  0  0  0  0  0  0  0  0  0
    8.0269    3.6030    0.0000 C   0  0  0  0  0  0  0  0  0  0  0  0
    8.0391    5.1030    0.0000 C   0  0  0  0  0  0  0  0  0  0  0  0
    9.3444    5.8423    0.0000 Br  0  0  0  0  0  0  0  0  0  0  0  0
    6.7464    5.8637    0.0000 C   0  0  0  0  0  0  0  0  0  0  0  0
    5.4411    5.1244    0.0000 C   0  0  0  0  0  0  0  0  0  0  0  0
    5.4289    3.6245    0.0000 C   0  0  0  0  0  0  0  0  0  0  0  0
    4.1236    2.8852    0.0000 C   0  0  0  0  0  0  0  0  0  0  0  0
    2.8309    3.6459    0.0000 N   0  0  0  0  0  0  0  0  0  0  0  0
    2.8431    5.1458    0.0000 C   0  0  0  0  0  0  0  0  0  0  0  0
    4.1484    5.8851    0.0000 O   0  0  0  0  0  0  0  0  0  0  0  0
    1.5504    5.9065    0.0000 C   0  0  0  0  0  0  0  0  0  0  0  0
    1.2507    7.3762    0.0000 C   0  0  0  0  0  0  0  0  0  0  0  0
   -0.2398    7.5453    0.0000 C   0  0  0  0  0  0  0  0  0  0  0  0
   -0.8612    6.1801    0.0000 C   0  0  0  0  0  0  0  0  0  0  0  0
    0.2454    5.1672    0.0000 N   0  0  0  0  0  0  0  0  0  0  0  0
    0.2330    3.6673    0.0000 C   0  0  0  0  0  0  0  0  0  0  0  0
   -1.2056    4.0926    0.0000 C   0  0  0  0  0  0  0  0  0  0  0  0
   -2.0545    2.8560    0.0000 C   0  0  0  0  0  0  0  0  0  0  0  0
   -3.5540    2.8160    0.0000 O   0  0  0  0  0  0  0  0  0  0  0  0
   -1.1408    1.6664    0.0000 N   0  0  0  0  0  0  0  0  0  0  0  0
    0.2729    2.1678    0.0000 C   0  0  0  0  0  0  0  0  0  0  0  0
    1.1444    0.9471    0.0000 O   0  0  0  0  0  0  0  0  0  0  0  0
    1.5256    2.9066    0.0000 C   0  0  0  0  0  0  0  0  0  0  0  0
    1.7740    1.4273    0.0000 O   0  0  0  0  0  0  0  0  0  0  0  0
  1  2  1  0  0  0  0
  3  2  2  0  0  0  0
  2  8  1  0  0  0  0
  4  3  1  0  0  0  0
  4  5  1  0  0  0  0
  6  4  2  0  0  0  0
  7  6  1  0  0  0  0
  8  7  2  0  0  0  0
  8  9  1  0  0  0  0
  9 10  1  0  0  0  0
 11 10  1  0  0  0  0
 10 25  1  0  0  0  0
 11 12  2  0  0  0  0
 13 11  1  0  0  0  0
 14 13  2  0  0  0  0
 13 17  1  0  0  0  0
 15 14  1  0  0  0  0
 16 15  2  0  0  0  0
 17 16  1  0  0  0  0
 18 17  1  0  0  0  0
 19 18  1  0  0  0  0
 18 23  1  0  0  0  0
 25 18  1  0  0  0  0
 20 19  1  0  0  0  0
 20 21  2  0  0  0  0
 22 20  1  0  0  0  0
 23 22  1  0  0  0  0
 23 24  2  0  0  0  0
 25 26  2  0  0  0  0
M  END
> <Inchi_key>
QCVNMNYRNIMDKV-UHFFFAOYSA-N

> <Source>
Mulliner

> <ID>
HT1799

> <H_MFHB>
0

> <CAS>
147254-64-6

> <Cholestasis>


> <Name>
ranirestat

> <Class>
0


$$$$