
  -INDIGO-08031710012D

 30 31  0  0  0  0  0  0  0  0999 V2000
   -0.3013   -1.1244    0.0000 C   0  0  0  0  0  0  0  0  0  0  0  0
    0.9979   -1.8744    0.0000 C   0  0  0  0  0  0  0  0  0  0  0  0
    0.9979   -3.3744    0.0000 C   0  0  0  0  0  0  0  0  0  0  0  0
    0.9979   -0.3744    0.0000 C   0  0  0  0  0  0  0  0  0  0  0  0
    2.2967   -1.1244    0.0000 C   0  0  0  0  0  0  0  0  0  0  0  0
    3.5959   -1.8744    0.0000 C   0  0  0  0  0  0  0  0  0  0  0  0
    4.3458   -0.5754    0.0000 C   0  0  0  0  0  0  0  0  0  0  0  0
    2.8460   -3.1734    0.0000 C   0  0  0  0  0  0  0  0  0  0  0  0
    4.8950   -2.6244    0.0000 C   0  0  0  0  0  0  0  0  0  0  0  0
    4.8950   -4.1244    0.0000 C   0  0  0  0  0  0  0  0  0  0  0  0
    6.1939   -4.8744    0.0000 C   0  0  0  0  0  0  0  0  0  0  0  0
    7.4930   -4.1244    0.0000 C   0  0  0  0  0  0  0  0  0  0  0  0
    8.7918   -4.8744    0.0000 O   0  0  0  0  0  0  0  0  0  0  0  0
   10.0910   -4.1244    0.0000 C   0  0  0  0  0  0  0  0  0  0  0  0
   11.3902   -4.8744    0.0000 C   0  0  0  0  0  0  0  0  0  0  0  0
   12.6890   -4.1244    0.0000 O   0  0  0  0  0  0  0  0  0  0  0  0
   13.9882   -4.8744    0.0000 C   0  0  0  0  0  0  0  0  0  0  0  0
   15.2873   -4.1244    0.0000 C   0  0  0  0  0  0  0  0  0  0  0  0
   16.5862   -4.8744    0.0000 N   0  0  0  0  0  0  0  0  0  0  0  0
   17.8853   -5.6244    0.0000 C   0  0  0  0  0  0  0  0  0  0  0  0
   15.8363   -6.1734    0.0000 C   0  0  0  0  0  0  0  0  0  0  0  0
   17.3361   -3.5754    0.0000 C   0  0  0  0  0  0  0  0  0  0  0  0
   18.8362   -3.5754    0.0000 C   0  0  0  0  0  0  0  0  0  0  0  0
   19.5861   -2.2763    0.0000 C   0  0  0  0  0  0  0  0  0  0  0  0
   21.0863   -2.2763    0.0000 C   0  0  0  0  0  0  0  0  0  0  0  0
   21.8362   -3.5754    0.0000 C   0  0  0  0  0  0  0  0  0  0  0  0
   21.0863   -4.8744    0.0000 C   0  0  0  0  0  0  0  0  0  0  0  0
   19.5861   -4.8744    0.0000 C   0  0  0  0  0  0  0  0  0  0  0  0
    7.4930   -2.6244    0.0000 C   0  0  0  0  0  0  0  0  0  0  0  0
    6.1939   -1.8744    0.0000 C   0  0  0  0  0  0  0  0  0  0  0  0
  1  2  1  0  0  0  0
  2  3  1  0  0  0  0
  2  4  1  0  0  0  0
  2  5  1  0  0  0  0
  5  6  1  0  0  0  0
  6  7  1  0  0  0  0
  6  8  1  0  0  0  0
  6  9  1  0  0  0  0
 10  9  2  0  0  0  0
  9 30  1  0  0  0  0
 11 10  1  0  0  0  0
 12 11  2  0  0  0  0
 12 13  1  0  0  0  0
 29 12  1  0  0  0  0
 13 14  1  0  0  0  0
 14 15  1  0  0  0  0
 15 16  1  0  0  0  0
 16 17  1  0  0  0  0
 17 18  1  0  0  0  0
 18 19  1  0  0  0  0
 19 20  1  0  0  0  0
 19 21  1  0  0  0  0
 19 22  1  0  0  0  0
 22 23  1  0  0  0  0
 24 23  2  0  0  0  0
 23 28  1  0  0  0  0
 25 24  1  0  0  0  0
 26 25  2  0  0  0  0
 27 26  1  0  0  0  0
 28 27  2  0  0  0  0
 30 29  2  0  0  0  0
M  CHG  1  19   1
M  END
> <Inchi_key>
SIYLLGKDQZGJHK-UHFFFAOYSA-N

> <Source>
Mulliner

> <ID>
HT3789

> <H_MFHB>
0

> <CAS>


> <Cholestasis>


> <Name>


> <Class>
0

$$$$