

  -INDIGO-08031710012D

 15 16  0  0  0  0  0  0  0  0999 V2000
   11.9000    0.0000    0.0000 O   0  0  0  0  0  0  0  0  0  0  0  0
   10.4000    0.0000    0.0000 C   0  0  0  0  0  0  0  0  0  0  0  0
    9.6500    1.2990    0.0000 C   0  0  0  0  0  0  0  0  0  0  0  0
    8.1500    1.2990    0.0000 C   0  0  0  0  0  0  0  0  0  0  0  0
    7.4000    0.0000    0.0000 C   0  0  0  0  0  0  0  0  0  0  0  0
    5.9000    0.0000    0.0000 O   0  0  0  0  0  0  0  0  0  0  0  0
    5.1500   -1.2990    0.0000 C   0  0  0  0  0  0  0  0  0  0  0  0
    3.6500   -1.2990    0.0000 C   0  0  0  0  0  0  0  0  0  0  0  0
    2.9000    0.0000    0.0000 C   0  0  0  0  0  0  0  0  0  0  0  0
    1.4000    0.0000    0.0000 C   0  0  0  0  0  0  0  0  0  0  0  0
    0.6500   -1.2990    0.0000 C   0  0  0  0  0  0  0  0  0  0  0  0
    1.4000   -2.5981    0.0000 C   0  0  0  0  0  0  0  0  0  0  0  0
    2.9000   -2.5981    0.0000 C   0  0  0  0  0  0  0  0  0  0  0  0
    8.1500   -1.2990    0.0000 C   0  0  0  0  0  0  0  0  0  0  0  0
    9.6500   -1.2990    0.0000 C   0  0  0  0  0  0  0  0  0  0  0  0
  1  2  1  0  0  0  0
  3  2  2  0  0  0  0
  2 15  1  0  0  0  0
  4  3  1  0  0  0  0
  5  4  2  0  0  0  0
  5  6  1  0  0  0  0
 14  5  1  0  0  0  0
  6  7  1  0  0  0  0
  7  8  1  0  0  0  0
  9  8  2  0  0  0  0
  8 13  1  0  0  0  0
 10  9  1  0  0  0  0
 11 10  2  0  0  0  0
 12 11  1  0  0  0  0
 13 12  2  0  0  0  0
 15 14  2  0  0  0  0
M  END
> <Inchi_key>
VYQNWZOUAUKGHI-UHFFFAOYSA-N

> <Source>
Mulliner

> <ID>
HT1429

> <H_MFHB>
0

> <CAS>


> <Cholestasis>


> <Name>
monobenzone

> <Class>
0


$$$$