
  -INDIGO-08031710012D

 12 12  0  0  0  0  0  0  0  0999 V2000
    8.0344   -1.5278    0.0000 C   0  0  0  0  0  0  0  0  0  0  0  0
    6.7353   -2.2778    0.0000 C   0  0  0  0  0  0  0  0  0  0  0  0
    5.4363   -1.5278    0.0000 O   0  0  0  0  0  0  0  0  0  0  0  0
    4.1373   -2.2778    0.0000 C   0  0  0  0  0  0  0  0  0  0  0  0
    4.1373   -3.7778    0.0000 C   0  0  0  0  0  0  0  0  0  0  0  0
    2.8382   -4.5278    0.0000 C   0  0  0  0  0  0  0  0  0  0  0  0
    1.5392   -3.7778    0.0000 C   0  0  0  0  0  0  0  0  0  0  0  0
    1.5392   -2.2778    0.0000 C   0  0  0  0  0  0  0  0  0  0  0  0
    2.8382   -1.5278    0.0000 C   0  0  0  0  0  0  0  0  0  0  0  0
    2.8382   -0.0278    0.0000 C   0  0  0  0  0  0  0  0  0  0  0  0
    1.5392    0.7222    0.0000 O   0  0  0  0  0  0  0  0  0  0  0  0
    4.1373    0.7222    0.0000 N   0  0  0  0  0  0  0  0  0  0  0  0
  1  2  1  0  0  0  0
  2  3  1  0  0  0  0
  3  4  1  0  0  0  0
  5  4  2  0  0  0  0
  4  9  1  0  0  0  0
  6  5  1  0  0  0  0
  7  6  2  0  0  0  0
  8  7  1  0  0  0  0
  9  8  2  0  0  0  0
  9 10  1  0  0  0  0
 10 11  2  0  0  0  0
 10 12  1  0  0  0  0
M  END
> <Inchi_key>
SBNKFTQSBPKMBZ-UHFFFAOYSA-N

> <Source>
Mulliner

> <ID>
HT2701

> <H_MFHB>
0

> <CAS>


> <Cholestasis>


> <Name>


> <Class>
0

$$$$