
  -INDIGO-08031709442D

 10 12  0  0  0  0  0  0  0  0999 V2000
    1.5074   -0.1005    0.0000 N   0  0  0  0  0  0  0  0  0  0  0  0
    0.9557    1.1642    0.0000 C   0  0  0  0  0  0  0  0  0  0  0  0
   -0.2320    1.9101    0.0000 N   0  0  0  0  0  0  0  0  0  0  0  0
    1.3507    2.0643    0.0000 C   0  0  0  0  0  0  0  0  0  0  0  0
    1.9030    0.6953    0.0000 N   0  0  0  0  0  0  0  0  0  0  0  0
    3.2137   -0.0746    0.0000 C   0  0  0  0  0  0  0  0  0  0  0  0
    0.7885   -0.3825    0.0000 C   0  0  0  0  0  0  0  0  0  0  0  0
   -0.7757   -0.4883    0.0000 N   0  0  0  0  0  0  0  0  0  0  0  0
    0.4735   -1.1120    0.0000 C   0  0  0  0  0  0  0  0  0  0  0  0
   -1.3100    0.8841    0.0000 C   0  0  0  0  0  0  0  0  0  0  0  0
  2  1  1  0  0  0  0
  6  1  1  0  0  0  0
  1  9  1  0  0  0  0
  3  2  1  0  0  0  0
  3  4  1  0  0  0  0
 10  3  1  0  0  0  0
  4  5  1  0  0  0  0
  5  6  1  0  0  0  0
  5  7  1  0  0  0  0
  7  8  1  0  0  0  0
  9  8  1  0  0  0  0
  8 10  1  0  0  0  0
M  END
> <Inchi_key>
VKYKSIONXSXAKP-UHFFFAOYSA-N

> <Source>
Kotsampasakou

> <ID>
EK0330

> <H_MFHB>


> <CAS>


> <Cholestasis>
0

> <Name>
methenamine

> <Class>
0

$$$$