

  -INDIGO-08031710012D

 33 35  0  0  0  0  0  0  0  0999 V2000
    0.9366    3.4955    0.0000 N   0  0  0  0  0  0  0  0  0  0  0  0
    2.2358    2.7455    0.0000 C   0  0  0  0  0  0  0  0  0  0  0  0
    2.2358    1.2455    0.0000 C   0  0  0  0  0  0  0  0  0  0  0  0
    3.5348    0.4955    0.0000 O   0  0  0  0  0  0  0  0  0  0  0  0
    3.5348   -1.0045    0.0000 C   0  0  0  0  0  0  0  0  0  0  0  0
    4.8337   -1.7545    0.0000 O   0  0  0  0  0  0  0  0  0  0  0  0
    6.1327   -1.0045    0.0000 C   0  0  0  0  0  0  0  0  0  0  0  0
    6.1327    0.4955    0.0000 C   0  0  0  0  0  0  0  0  0  0  0  0
    4.8337    1.2455    0.0000 N   0  0  0  0  0  0  0  0  0  0  0  0
    7.4319    1.2455    0.0000 C   0  0  0  0  0  0  0  0  0  0  0  0
    8.7309    0.4955    0.0000 C   0  0  0  0  0  0  0  0  0  0  0  0
   10.0299    1.2455    0.0000 N   0  0  0  0  0  0  0  0  0  0  0  0
    8.7309   -1.0045    0.0000 C   0  0  0  0  0  0  0  0  0  0  0  0
   10.0299   -1.7545    0.0000 O   0  0  0  0  0  0  0  0  0  0  0  0
   11.3288   -1.0045    0.0000 C   0  0  0  0  0  0  0  0  0  0  0  0
   11.3288    0.4955    0.0000 O   0  0  0  0  0  0  0  0  0  0  0  0
   12.6281    1.2455    0.0000 C   0  0  0  0  0  0  0  0  0  0  0  0
   12.6281    2.7455    0.0000 C   0  0  0  0  0  0  0  0  0  0  0  0
   13.9270    3.4955    0.0000 O   0  0  0  0  0  0  0  0  0  0  0  0
   13.9270    0.4955    0.0000 C   0  0  0  0  0  0  0  0  0  0  0  0
   15.2260    1.2455    0.0000 O   0  0  0  0  0  0  0  0  0  0  0  0
   13.9270   -1.0045    0.0000 C   0  0  0  0  0  0  0  0  0  0  0  0
   15.2260   -1.7545    0.0000 N   0  0  0  0  0  0  0  0  0  0  0  0
   12.6281   -1.7545    0.0000 C   0  0  0  0  0  0  0  0  0  0  0  0
   12.6281   -3.2545    0.0000 O   0  0  0  0  0  0  0  0  0  0  0  0
    7.4319   -1.7545    0.0000 C   0  0  0  0  0  0  0  0  0  0  0  0
    7.4319   -3.2545    0.0000 O   0  0  0  0  0  0  0  0  0  0  0  0
    2.2358   -1.7545    0.0000 C   0  0  0  0  0  0  0  0  0  0  0  0
    2.2358   -3.2545    0.0000 O   0  0  0  0  0  0  0  0  0  0  0  0
    0.9366   -1.0045    0.0000 C   0  0  0  0  0  0  0  0  0  0  0  0
   -0.3624   -1.7545    0.0000 O   0  0  0  0  0  0  0  0  0  0  0  0
    0.9366    0.4955    0.0000 C   0  0  0  0  0  0  0  0  0  0  0  0
   -0.3624    1.2455    0.0000 O   0  0  0  0  0  0  0  0  0  0  0  0
  1  2  1  0  0  0  0
  2  3  1  0  0  0  0
  4  3  1  0  0  0  0
  3 32  1  0  0  0  0
  5  4  1  0  0  0  0
  5  6  1  0  0  0  0
 28  5  1  0  0  0  0
  6  7  1  0  0  0  0
  8  7  1  0  0  0  0
  7 26  1  0  0  0  0
  8  9  1  0  0  0  0
 10  8  1  0  0  0  0
 11 10  1  0  0  0  0
 11 12  1  0  0  0  0
 13 11  1  0  0  0  0
 13 14  1  0  0  0  0
 26 13  1  0  0  0  0
 14 15  1  0  0  0  0
 16 15  1  0  0  0  0
 15 24  1  0  0  0  0
 17 16  1  0  0  0  0
 17 18  1  0  0  0  0
 20 17  1  0  0  0  0
 18 19  1  0  0  0  0
 20 21  1  0  0  0  0
 22 20  1  0  0  0  0
 22 23  1  0  0  0  0
 24 22  1  0  0  0  0
 24 25  1  0  0  0  0
 26 27  1  0  0  0  0
 28 29  1  0  0  0  0
 30 28  1  0  0  0  0
 30 31  1  0  0  0  0
 32 30  1  0  0  0  0
 32 33  1  0  0  0  0
M  END
> <Inchi_key>
SBUJHOSQTJFQJX-UHFFFAOYSA-N

> <Source>
Mulliner , Kotsampasakou

> <ID>
EK0289;HT1154

> <H_MFHB>
0

> <CAS>


> <Cholestasis>
0

> <Name>
kanamycin

> <Class>
0


$$$$