
  -INDIGO-08031710012D

 32 35  0  0  0  0  0  0  0  0999 V2000
   -1.8473    4.1619    0.0000 C   0  0  0  0  0  0  0  0  0  0  0  0
   -0.5484    3.4119    0.0000 C   0  0  0  0  0  0  0  0  0  0  0  0
   -0.5484    1.9119    0.0000 C   0  0  0  0  0  0  0  0  0  0  0  0
    0.7508    4.1619    0.0000 N   0  0  0  0  0  0  0  0  0  0  0  0
    0.7508    5.6619    0.0000 C   0  0  0  0  0  0  0  0  0  0  0  0
   -0.5484    6.4119    0.0000 C   0  0  0  0  0  0  0  0  0  0  0  0
   -0.5484    7.9119    0.0000 C   0  0  0  0  0  0  0  0  0  0  0  0
    0.7508    8.6619    0.0000 C   0  0  0  0  0  0  0  0  0  0  0  0
    2.0499    7.9119    0.0000 N   0  0  0  0  0  0  0  0  0  0  0  0
    2.0499    6.4119    0.0000 C   0  0  0  0  0  0  0  0  0  0  0  0
    3.3488    5.6619    0.0000 N   0  0  0  0  0  0  0  0  0  0  0  0
    4.6480    6.4119    0.0000 C   0  0  0  0  0  0  0  0  0  0  0  0
    5.9469    5.6619    0.0000 C   0  0  0  0  0  0  0  0  0  0  0  0
    5.9469    4.1619    0.0000 N   0  0  0  0  0  0  0  0  0  0  0  0
    4.6480    3.4119    0.0000 C   0  0  0  0  0  0  0  0  0  0  0  0
    3.3488    4.1619    0.0000 C   0  0  0  0  0  0  0  0  0  0  0  0
    7.2460    3.4119    0.0000 C   0  0  0  0  0  0  0  0  0  0  0  0
    7.2460    1.9119    0.0000 O   0  0  0  0  0  0  0  0  0  0  0  0
    8.5449    4.1619    0.0000 C   0  0  0  0  0  0  0  0  0  0  0  0
    9.9152    3.5518    0.0000 C   0  0  0  0  0  0  0  0  0  0  0  0
   10.9189    4.6665    0.0000 C   0  0  0  0  0  0  0  0  0  0  0  0
   12.4189    4.6665    0.0000 C   0  0  0  0  0  0  0  0  0  0  0  0
   13.1690    5.9656    0.0000 C   0  0  0  0  0  0  0  0  0  0  0  0
   14.6691    5.9656    0.0000 N   0  0  0  0  0  0  0  0  0  0  0  0
   15.4189    7.2646    0.0000 S   0  0  0  0  0  0  0  0  0  0  0  0
   16.7181    6.5146    0.0000 O   0  0  0  0  0  0  0  0  0  0  0  0
   14.1200    8.0146    0.0000 O   0  0  0  0  0  0  0  0  0  0  0  0
   16.1691    8.5636    0.0000 C   0  0  0  0  0  0  0  0  0  0  0  0
   12.4189    7.2646    0.0000 C   0  0  0  0  0  0  0  0  0  0  0  0
   10.9189    7.2646    0.0000 C   0  0  0  0  0  0  0  0  0  0  0  0
   10.1690    5.9656    0.0000 C   0  0  0  0  0  0  0  0  0  0  0  0
    8.7018    5.6537    0.0000 N   0  0  0  0  0  0  0  0  0  0  0  0
  1  2  1  0  0  0  0
  2  3  1  0  0  0  0
  2  4  1  0  0  0  0
  4  5  1  0  0  0  0
  6  5  2  0  0  0  0
  5 10  1  0  0  0  0
  7  6  1  0  0  0  0
  8  7  2  0  0  0  0
  9  8  1  0  0  0  0
 10  9  2  0  0  0  0
 10 11  1  0  0  0  0
 12 11  1  0  0  0  0
 11 16  1  0  0  0  0
 13 12  1  0  0  0  0
 14 13  1  0  0  0  0
 15 14  1  0  0  0  0
 14 17  1  0  0  0  0
 16 15  1  0  0  0  0
 17 18  2  0  0  0  0
 17 19  1  0  0  0  0
 20 19  2  0  0  0  0
 19 32  1  0  0  0  0
 21 20  1  0  0  0  0
 22 21  2  0  0  0  0
 21 31  1  0  0  0  0
 23 22  1  0  0  0  0
 23 24  1  0  0  0  0
 29 23  2  0  0  0  0
 24 25  1  0  0  0  0
 25 26  2  0  0  0  0
 25 27  2  0  0  0  0
 25 28  1  0  0  0  0
 30 29  1  0  0  0  0
 31 30  2  0  0  0  0
 32 31  1  0  0  0  0
M  END
> <Inchi_key>
WHBIGIKBNXZKFE-UHFFFAOYSA-N

> <Source>
Mulliner

> <ID>
HT0605

> <H_MFHB>
0

> <CAS>


> <Cholestasis>


> <Name>
delavirdine mesylate;delavirdine

> <Class>
0

$$$$