

  -INDIGO-08031710012D

 29 33  0  0  0  0  0  0  0  0999 V2000
   17.5983   -0.0138    0.0000 C   0  0  0  0  0  0  0  0  0  0  0  0
   16.0983   -0.0115    0.0000 C   0  0  0  0  0  0  0  0  0  0  0  0
   15.3463   -1.3093    0.0000 O   0  0  0  0  0  0  0  0  0  0  0  0
   15.3503    1.2887    0.0000 O   0  0  0  0  0  0  0  0  0  0  0  0
   13.8502    1.2911    0.0000 C   0  0  0  0  0  0  0  0  0  0  0  0
   13.0982   -0.0068    0.0000 C   0  0  0  0  0  0  0  0  0  0  0  0
   11.5984   -0.0044    0.0000 C   0  0  0  0  0  0  0  0  0  0  0  0
   10.8504    1.2958    0.0000 C   0  0  0  0  0  0  0  0  0  0  0  0
   12.3494    1.3458    0.0000 C   0  0  0  0  0  0  0  0  0  0  0  0
    9.3504    1.2982    0.0000 C   0  0  0  0  0  0  0  0  0  0  0  0
    8.5984    0.0003    0.0000 C   0  0  0  0  0  0  0  0  0  0  0  0
    7.0983    0.0027    0.0000 C   0  0  0  0  0  0  0  0  0  0  0  0
    6.3503    1.3029    0.0000 C   0  0  0  0  0  0  0  0  0  0  0  0
    5.4249    0.1223    0.0000 C   0  0  0  0  0  0  0  0  0  0  0  0
    7.1023    2.6008    0.0000 C   0  0  0  0  0  0  0  0  0  0  0  0
    6.1005    3.7170    0.0000 C   0  0  0  0  0  0  0  0  0  0  0  0
    4.7291    3.1091    0.0000 C   0  0  0  0  0  0  0  0  0  0  0  0
    4.8835    1.6171    0.0000 C   0  0  0  0  0  0  0  0  0  0  0  0
    3.7672    0.6151    0.0000 C   0  0  0  0  0  0  0  0  0  0  0  0
    2.3414    1.0809    0.0000 C   0  0  0  0  0  0  0  0  0  0  0  0
    1.2251    0.0790    0.0000 C   0  0  0  0  0  0  0  0  0  0  0  0
    1.5347   -1.3887    0.0000 C   0  0  0  0  0  0  0  0  0  0  0  0
    2.9605   -1.8545    0.0000 N   0  0  0  0  0  0  0  0  0  0  0  0
    4.0770   -0.8526    0.0000 C   0  0  0  0  0  0  0  0  0  0  0  0
    8.6023    2.5984    0.0000 C   0  0  0  0  0  0  0  0  0  0  0  0
    9.3544    3.8962    0.0000 C   0  0  0  0  0  0  0  0  0  0  0  0
   10.8544    3.8939    0.0000 C   0  0  0  0  0  0  0  0  0  0  0  0
   11.6024    2.5937    0.0000 C   0  0  0  0  0  0  0  0  0  0  0  0
   13.1024    2.5913    0.0000 C   0  0  0  0  0  0  0  0  0  0  0  0
  1  2  1  0  0  0  0
  2  3  2  0  0  0  0
  2  4  1  0  0  0  0
  4  5  1  0  0  0  0
  6  5  1  0  0  0  0
  5 29  1  0  0  0  0
  7  6  1  0  0  0  0
  8  7  1  0  0  0  0
  8  9  1  0  0  0  0
 10  8  1  0  0  0  0
  8 28  1  0  0  0  0
 11 10  1  0  0  0  0
 10 25  1  0  0  0  0
 12 11  1  0  0  0  0
 13 12  1  0  0  0  0
 13 14  1  0  0  0  0
 13 15  1  0  0  0  0
 18 13  1  0  0  0  0
 15 16  1  0  0  0  0
 25 15  1  0  0  0  0
 16 17  1  0  0  0  0
 17 18  2  0  0  0  0
 18 19  1  0  0  0  0
 20 19  2  0  0  0  0
 19 24  1  0  0  0  0
 21 20  1  0  0  0  0
 22 21  2  0  0  0  0
 23 22  1  0  0  0  0
 24 23  2  0  0  0  0
 26 25  1  0  0  0  0
 27 26  1  0  0  0  0
 28 27  2  0  0  0  0
 29 28  1  0  0  0  0
M  END
> <Inchi_key>
UVIQSJCZCSLXRZ-UHFFFAOYSA-N

> <Source>
Mulliner

> <ID>
HT0044

> <H_MFHB>
0

> <CAS>


> <Cholestasis>


> <Name>
abiraterone acetate

> <Class>
0


$$$$