
  -INDIGO-08031710012D

 30 34  0  0  0  0  0  0  0  0999 V2000
    2.2824   -0.0776    0.0000 C   0  0  0  0  0  0  0  0  0  0  0  0
    3.5816    0.6724    0.0000 O   0  0  0  0  0  0  0  0  0  0  0  0
    3.5816    2.1724    0.0000 C   0  0  0  0  0  0  0  0  0  0  0  0
    2.2824    2.9224    0.0000 C   0  0  0  0  0  0  0  0  0  0  0  0
    2.2824    4.4224    0.0000 C   0  0  0  0  0  0  0  0  0  0  0  0
    3.5816    5.1724    0.0000 C   0  0  0  0  0  0  0  0  0  0  0  0
    4.8806    4.4224    0.0000 C   0  0  0  0  0  0  0  0  0  0  0  0
    6.1795    5.1724    0.0000 O   0  0  0  0  0  0  0  0  0  0  0  0
    7.4787    4.4224    0.0000 C   0  0  0  0  0  0  0  0  0  0  0  0
    4.8806    2.9224    0.0000 C   0  0  0  0  0  0  0  0  0  0  0  0
    6.1795    2.1724    0.0000 O   0  0  0  0  0  0  0  0  0  0  0  0
    6.1795    0.6724    0.0000 C   0  0  0  0  0  0  0  0  0  0  0  0
    0.9834    5.1724    0.0000 C   0  0  0  0  0  0  0  0  0  0  0  0
    0.9834    6.6724    0.0000 C   0  0  0  0  0  0  0  0  0  0  0  0
   -0.3155    7.4224    0.0000 C   0  0  0  0  0  0  0  0  0  0  0  0
   -0.0037    8.8896    0.0000 C   0  0  0  0  0  0  0  0  0  0  0  0
    1.4881    9.0464    0.0000 O   0  0  0  0  0  0  0  0  0  0  0  0
    2.0982    7.6762    0.0000 C   0  0  0  0  0  0  0  0  0  0  0  0
    3.5654    7.3642    0.0000 O   0  0  0  0  0  0  0  0  0  0  0  0
   -1.6145    6.6724    0.0000 C   0  0  0  0  0  0  0  0  0  0  0  0
   -2.9137    7.4224    0.0000 O   0  0  0  0  0  0  0  0  0  0  0  0
   -1.6145    5.1724    0.0000 C   0  0  0  0  0  0  0  0  0  0  0  0
   -2.9137    4.4224    0.0000 C   0  0  0  0  0  0  0  0  0  0  0  0
   -2.9137    2.9224    0.0000 C   0  0  0  0  0  0  0  0  0  0  0  0
   -4.0283    1.9187    0.0000 O   0  0  0  0  0  0  0  0  0  0  0  0
   -3.4181    0.5483    0.0000 C   0  0  0  0  0  0  0  0  0  0  0  0
   -1.9265    0.7053    0.0000 O   0  0  0  0  0  0  0  0  0  0  0  0
   -1.6145    2.1724    0.0000 C   0  0  0  0  0  0  0  0  0  0  0  0
   -0.3155    2.9224    0.0000 C   0  0  0  0  0  0  0  0  0  0  0  0
   -0.3155    4.4224    0.0000 C   0  0  0  0  0  0  0  0  0  0  0  0
  1  2  1  0  0  0  0
  2  3  1  0  0  0  0
  4  3  2  0  0  0  0
  3 10  1  0  0  0  0
  5  4  1  0  0  0  0
  6  5  2  0  0  0  0
  5 13  1  0  0  0  0
  7  6  1  0  0  0  0
  7  8  1  0  0  0  0
 10  7  2  0  0  0  0
  8  9  1  0  0  0  0
 10 11  1  0  0  0  0
 11 12  1  0  0  0  0
 14 13  1  0  0  0  0
 13 30  1  0  0  0  0
 14 15  1  0  0  0  0
 18 14  1  0  0  0  0
 15 16  1  0  0  0  0
 20 15  1  0  0  0  0
 16 17  1  0  0  0  0
 17 18  1  0  0  0  0
 18 19  2  0  0  0  0
 20 21  1  0  0  0  0
 22 20  1  0  0  0  0
 23 22  2  0  0  0  0
 22 30  1  0  0  0  0
 24 23  1  0  0  0  0
 25 24  1  0  0  0  0
 24 28  2  0  0  0  0
 26 25  1  0  0  0  0
 27 26  1  0  0  0  0
 28 27  1  0  0  0  0
 29 28  1  0  0  0  0
 30 29  2  0  0  0  0
M  END
> <Inchi_key>
YJGVMLPVUAXIQN-UHFFFAOYSA-N

> <Source>
Mulliner , Kotsampasakou

> <ID>
EK0432;HT1704

> <H_MFHB>
0

> <CAS>


> <Cholestasis>
0

> <Name>
podophyllotoxin

> <Class>
0

$$$$