

  -INDIGO-08031710012D

 12 12  0  0  0  0  0  0  0  0999 V2000
    7.7096   -2.0658    0.0000 C   0  0  0  0  0  0  0  0  0  0  0  0
    6.4106   -1.3158    0.0000 C   0  0  0  0  0  0  0  0  0  0  0  0
    6.4106    0.1842    0.0000 N   0  0  0  0  0  0  0  0  0  0  0  0
    5.1115   -2.0658    0.0000 C   0  0  0  0  0  0  0  0  0  0  0  0
    5.1115   -3.5658    0.0000 O   0  0  0  0  0  0  0  0  0  0  0  0
    3.8126   -1.3158    0.0000 C   0  0  0  0  0  0  0  0  0  0  0  0
    3.8126    0.1842    0.0000 C   0  0  0  0  0  0  0  0  0  0  0  0
    2.5135    0.9342    0.0000 C   0  0  0  0  0  0  0  0  0  0  0  0
    1.2144    0.1842    0.0000 C   0  0  0  0  0  0  0  0  0  0  0  0
    1.2144   -1.3158    0.0000 C   0  0  0  0  0  0  0  0  0  0  0  0
   -0.0846   -2.0658    0.0000 O   0  0  0  0  0  0  0  0  0  0  0  0
    2.5135   -2.0658    0.0000 C   0  0  0  0  0  0  0  0  0  0  0  0
  1  2  1  0  0  0  0
  2  3  1  0  0  0  0
  2  4  1  0  0  0  0
  4  5  1  0  0  0  0
  4  6  1  0  0  0  0
  7  6  2  0  0  0  0
  6 12  1  0  0  0  0
  8  7  1  0  0  0  0
  9  8  2  0  0  0  0
 10  9  1  0  0  0  0
 10 11  1  0  0  0  0
 12 10  2  0  0  0  0
M  END
> <Inchi_key>
WXFIGDLSSYIKKV-UHFFFAOYSA-N

> <Source>
Mulliner

> <ID>
HT1325

> <H_MFHB>
0

> <CAS>


> <Cholestasis>


> <Name>
metaraminol bitartrate;metaraminol

> <Class>
0


$$$$