

  -INDIGO-08031710012D

 29 32  0  0  0  0  0  0  0  0999 V2000
   -6.8168    4.2022    0.0000 O   0  0  0  0  0  0  0  0  0  0  0  0
   -5.5179    4.9522    0.0000 C   0  0  0  0  0  0  0  0  0  0  0  0
   -5.5179    6.4522    0.0000 N   0  0  0  0  0  0  0  0  0  0  0  0
   -4.2188    4.2022    0.0000 C   0  0  0  0  0  0  0  0  0  0  0  0
   -2.9196    4.9522    0.0000 C   0  0  0  0  0  0  0  0  0  0  0  0
   -2.9196    6.4522    0.0000 C   0  0  0  0  0  0  0  0  0  0  0  0
   -1.6207    7.2021    0.0000 C   0  0  0  0  0  0  0  0  0  0  0  0
   -4.2188    7.2021    0.0000 C   0  0  0  0  0  0  0  0  0  0  0  0
   -0.3216    6.4522    0.0000 C   0  0  0  0  0  0  0  0  0  0  0  0
   -1.6207    8.7022    0.0000 C   0  0  0  0  0  0  0  0  0  0  0  0
   -4.2188    8.7022    0.0000 C   0  0  0  0  0  0  0  0  0  0  0  0
    0.9773    7.2021    0.0000 C   0  0  0  0  0  0  0  0  0  0  0  0
   -0.3216    4.9522    0.0000 O   0  0  0  0  0  0  0  0  0  0  0  0
   -2.9196    9.4522    0.0000 C   0  0  0  0  0  0  0  0  0  0  0  0
   -5.5179    9.4522    0.0000 O   0  0  0  0  0  0  0  0  0  0  0  0
    2.2765    6.4522    0.0000 N   0  0  0  0  0  0  0  0  0  0  0  0
    3.5754    7.2021    0.0000 C   0  0  0  0  0  0  0  0  0  0  0  0
    3.7324    8.6940    0.0000 C   0  0  0  0  0  0  0  0  0  0  0  0
    4.9457    6.5921    0.0000 C   0  0  0  0  0  0  0  0  0  0  0  0
    5.1994    9.0057    0.0000 C   0  0  0  0  0  0  0  0  0  0  0  0
    5.9495    7.7068    0.0000 C   0  0  0  0  0  0  0  0  0  0  0  0
    5.9495   10.3048    0.0000 C   0  0  0  0  0  0  0  0  0  0  0  0
    7.4494    7.7068    0.0000 C   0  0  0  0  0  0  0  0  0  0  0  0
    7.4494   10.3048    0.0000 C   0  0  0  0  0  0  0  0  0  0  0  0
    8.1995    9.0057    0.0000 C   0  0  0  0  0  0  0  0  0  0  0  0
    8.1995   11.6039    0.0000 C   0  0  0  0  0  0  0  0  0  0  0  0
    9.6994    9.0057    0.0000 C   0  0  0  0  0  0  0  0  0  0  0  0
    7.4494   12.9029    0.0000 C   0  0  0  0  0  0  0  0  0  0  0  0
   10.4495    7.7068    0.0000 C   0  0  0  0  0  0  0  0  0  0  0  0
  1  2  2  0  0  0  0
  3  2  1  0  0  0  0
  2  4  1  0  0  0  0
  4  5  2  0  0  0  0
  5  6  1  0  0  0  0
  7  6  1  0  0  0  0
  6  8  2  0  0  0  0
  7  9  1  0  0  0  0
 10  7  2  0  0  0  0
  8 11  1  0  0  0  0
  8  3  1  0  0  0  0
  9 12  1  0  0  0  0
  9 13  1  0  0  0  0
 14 10  1  0  0  0  0
 11 14  2  0  0  0  0
 11 15  1  0  0  0  0
 12 16  1  0  0  0  0
 16 17  1  0  0  0  0
 18 17  1  0  0  0  0
 17 19  1  0  0  0  0
 20 18  1  0  0  0  0
 19 21  1  0  0  0  0
 22 20  1  0  0  0  0
 20 21  2  0  0  0  0
 21 23  1  0  0  0  0
 24 22  2  0  0  0  0
 23 25  2  0  0  0  0
 24 26  1  0  0  0  0
 25 24  1  0  0  0  0
 25 27  1  0  0  0  0
 26 28  1  0  0  0  0
 27 29  1  0  0  0  0
M  END
> <Inchi_key>
QZZUEBNBZAPZLX-UHFFFAOYSA-N

> <Source>
Mulliner

> <ID>
HT1087

> <H_MFHB>
0

> <CAS>


> <Cholestasis>


> <Name>
indacaterol maleate;indacaterol

> <Class>
0


$$$$