

  -INDIGO-08031710012D

 21 22  0  0  0  0  0  0  0  0999 V2000
   13.0146   -3.3109    0.0000 C   0  0  0  0  0  0  0  0  0  0  0  0
   11.7152   -4.0605    0.0000 N   0  0  0  0  0  0  0  0  0  0  0  0
   11.7149   -5.5605    0.0000 C   0  0  0  0  0  0  0  0  0  0  0  0
   10.4164   -3.3101    0.0000 C   0  0  0  0  0  0  0  0  0  0  0  0
    9.1172   -4.0597    0.0000 C   0  0  0  0  0  0  0  0  0  0  0  0
    7.8184   -3.3093    0.0000 O   0  0  0  0  0  0  0  0  0  0  0  0
    6.5192   -4.0589    0.0000 C   0  0  0  0  0  0  0  0  0  0  0  0
    6.5187   -5.5589    0.0000 O   0  0  0  0  0  0  0  0  0  0  0  0
    5.2204   -3.3085    0.0000 C   0  0  0  0  0  0  0  0  0  0  0  0
    3.9210   -4.0581    0.0000 C   0  0  0  0  0  0  0  0  0  0  0  0
    3.9207   -5.5581    0.0000 C   0  0  0  0  0  0  0  0  0  0  0  0
    2.6213   -6.3076    0.0000 C   0  0  0  0  0  0  0  0  0  0  0  0
    1.3225   -5.5572    0.0000 C   0  0  0  0  0  0  0  0  0  0  0  0
    1.3230   -4.0572    0.0000 C   0  0  0  0  0  0  0  0  0  0  0  0
    2.6222   -3.3076    0.0000 C   0  0  0  0  0  0  0  0  0  0  0  0
    5.2208   -1.8085    0.0000 C   0  0  0  0  0  0  0  0  0  0  0  0
    6.5449   -2.5131    0.0000 O   0  0  0  0  0  0  0  0  0  0  0  0
    3.7321   -1.6252    0.0000 C   0  0  0  0  0  0  0  0  0  0  0  0
    3.4463   -0.1527    0.0000 C   0  0  0  0  0  0  0  0  0  0  0  0
    4.7585    0.5741    0.0000 C   0  0  0  0  0  0  0  0  0  0  0  0
    5.8552   -0.4492    0.0000 C   0  0  0  0  0  0  0  0  0  0  0  0
  1  2  1  0  0  0  0
  2  3  1  0  0  0  0
  2  4  1  0  0  0  0
  4  5  1  0  0  0  0
  5  6  1  0  0  0  0
  6  7  1  0  0  0  0
  7  8  2  0  0  0  0
  7  9  1  0  0  0  0
  9 10  1  0  0  0  0
  9 16  1  0  0  0  0
 11 10  2  0  0  0  0
 10 15  1  0  0  0  0
 12 11  1  0  0  0  0
 13 12  2  0  0  0  0
 14 13  1  0  0  0  0
 15 14  2  0  0  0  0
 16 17  1  0  0  0  0
 18 16  1  0  0  0  0
 16 21  1  0  0  0  0
 19 18  1  0  0  0  0
 20 19  1  0  0  0  0
 21 20  1  0  0  0  0
M  END
> <Inchi_key>
SKYSRIRYMSLOIN-UHFFFAOYSA-N

> <Source>
Mulliner , Kotsampasakou

> <ID>
EK0138;HT0567

> <H_MFHB>
0

> <CAS>


> <Cholestasis>
0

> <Name>
cyclopentolate

> <Class>
0


$$$$