
  -INDIGO-08031710012D

 10  9  0  0  0  0  0  0  0  0999 V2000
    8.7265   -2.3383    0.0000 C   0  0  0  0  0  0  0  0  0  0  0  0
    7.4275   -3.0883    0.0000 N   0  0  0  0  0  0  0  0  0  0  0  0
    6.1285   -2.3383    0.0000 C   0  0  0  0  0  0  0  0  0  0  0  0
    6.1285   -0.8383    0.0000 C   0  0  0  0  0  0  0  0  0  0  0  0
    4.8293   -3.0883    0.0000 C   0  0  0  0  0  0  0  0  0  0  0  0
    3.5305   -2.3383    0.0000 C   0  0  0  0  0  0  0  0  0  0  0  0
    2.2313   -3.0883    0.0000 C   0  0  0  0  0  0  0  0  0  0  0  0
    0.9323   -2.3383    0.0000 C   0  0  0  0  0  0  0  0  0  0  0  0
    0.9323   -0.8383    0.0000 C   0  0  0  0  0  0  0  0  0  0  0  0
   -0.3667   -3.0883    0.0000 C   0  0  0  0  0  0  0  0  0  0  0  0
  1  2  1  0  0  0  0
  2  3  1  0  0  0  0
  3  4  1  0  0  0  0
  3  5  1  0  0  0  0
  5  6  1  0  0  0  0
  6  7  1  0  0  0  0
  7  8  2  0  0  0  0
  8  9  1  0  0  0  0
  8 10  1  0  0  0  0
M  END
> <Inchi_key>
XVQUOJBERHHONY-UHFFFAOYSA-N

> <Source>
Mulliner

> <ID>
HT1134

> <H_MFHB>
0

> <CAS>


> <Cholestasis>


> <Name>
isometheptene

> <Class>
0

$$$$