

  -INDIGO-08031709442D

 11 11  0  0  0  0  0  0  0  0999 V2000
    7.5682    0.1181    0.0000 O   0  0  0  0  0  0  0  0  0  0  0  0
    6.8183    1.4171    0.0000 C   0  0  0  0  0  0  0  0  0  0  0  0
    7.5682    2.7162    0.0000 N   0  0  0  0  0  0  0  0  0  0  0  0
    5.3183    1.4171    0.0000 C   0  0  0  0  0  0  0  0  0  0  0  0
    4.5682    2.7162    0.0000 C   0  0  0  0  0  0  0  0  0  0  0  0
    3.0682    2.7162    0.0000 C   0  0  0  0  0  0  0  0  0  0  0  0
    2.3183    4.0152    0.0000 C   0  0  0  0  0  0  0  0  0  0  0  0
    0.8183    4.0152    0.0000 C   0  0  0  0  0  0  0  0  0  0  0  0
    0.0682    2.7162    0.0000 C   0  0  0  0  0  0  0  0  0  0  0  0
    0.8183    1.4171    0.0000 C   0  0  0  0  0  0  0  0  0  0  0  0
    2.3183    1.4171    0.0000 C   0  0  0  0  0  0  0  0  0  0  0  0
  1  2  1  0  0  0  0
  2  3  1  0  0  0  0
  2  4  1  0  0  0  0
  4  5  1  0  0  0  0
  5  6  1  0  0  0  0
  7  6  2  0  0  0  0
  6 11  1  0  0  0  0
  8  7  1  0  0  0  0
  9  8  2  0  0  0  0
 10  9  1  0  0  0  0
 11 10  2  0  0  0  0
M  END
> <Inchi_key>
YNEUKTPESKGPNQ-UHFFFAOYSA-N

> <Source>
Kotsampasakou

> <ID>
EK0421

> <H_MFHB>


> <CAS>


> <Cholestasis>
0

> <Name>
phenylpropanolamine hcl

> <Class>
0


$$$$