

  -INDIGO-08031710012D

 20 21  0  0  0  0  0  0  0  0999 V2000
    0.0662    2.9512    0.0000 C   0  0  0  0  0  0  0  0  0  0  0  0
    1.1809    1.9475    0.0000 N   0  0  0  0  0  0  0  0  0  0  0  0
    1.0241    0.4558    0.0000 C   0  0  0  0  0  0  0  0  0  0  0  0
    2.3944   -0.1543    0.0000 C   0  0  0  0  0  0  0  0  0  0  0  0
    3.3982    0.9604    0.0000 C   0  0  0  0  0  0  0  0  0  0  0  0
    4.8982    0.9604    0.0000 C   0  0  0  0  0  0  0  0  0  0  0  0
    5.6481    2.2594    0.0000 C   0  0  0  0  0  0  0  0  0  0  0  0
    7.1481    2.2594    0.0000 N   0  0  0  0  0  0  0  0  0  0  0  0
    7.8981    0.9604    0.0000 N   0  0  0  0  0  0  0  0  0  0  0  0
    9.3981    0.9604    0.0000 C   0  0  0  0  0  0  0  0  0  0  0  0
   10.1481    2.2594    0.0000 O   0  0  0  0  0  0  0  0  0  0  0  0
   10.1481   -0.3387    0.0000 N   0  0  0  0  0  0  0  0  0  0  0  0
    4.8982    3.5585    0.0000 C   0  0  0  0  0  0  0  0  0  0  0  0
    5.6481    4.8575    0.0000 O   0  0  0  0  0  0  0  0  0  0  0  0
    3.3982    3.5585    0.0000 C   0  0  0  0  0  0  0  0  0  0  0  0
    2.6482    2.2594    0.0000 C   0  0  0  0  0  0  0  0  0  0  0  0
   -0.2749   -0.2942    0.0000 S   0  0  0  0  0  0  0  0  0  0  0  0
   -1.0249    1.0048    0.0000 O   0  0  0  0  0  0  0  0  0  0  0  0
    0.4751   -1.5933    0.0000 O   0  0  0  0  0  0  0  0  0  0  0  0
   -1.5740   -1.0442    0.0000 O   0  0  0  0  0  0  0  0  0  0  0  0
  1  2  1  0  0  0  0
  3  2  1  0  0  0  0
  2 16  1  0  0  0  0
  4  3  1  0  0  0  0
  3 17  1  0  0  0  0
  5  4  1  0  0  0  0
  6  5  2  0  0  0  0
  5 16  1  0  0  0  0
  7  6  1  0  0  0  0
  7  8  1  0  0  0  0
 13  7  2  0  0  0  0
  8  9  2  0  0  0  0
  9 10  1  0  0  0  0
 10 11  2  0  0  0  0
 10 12  1  0  0  0  0
 13 14  1  0  0  0  0
 15 13  1  0  0  0  0
 16 15  2  0  0  0  0
 17 18  2  0  0  0  0
 17 19  2  0  0  0  0
 17 20  1  0  0  0  0
M  END
> <Inchi_key>
OQVRCWUMFBNYKF-OUKQBFOZSA-N

> <Source>
Mulliner

> <ID>
HT3355

> <H_MFHB>
0

> <CAS>


> <Cholestasis>


> <Name>


> <Class>
0


$$$$