
  -INDIGO-08031710012D

 16 15  0  0  0  0  0  0  0  0999 V2000
   -0.0276   -5.4130    0.0000 C   0  0  0  0  0  0  0  0  0  0  0  0
    0.7223   -4.1140    0.0000 C   0  0  0  0  0  0  0  0  0  0  0  0
    2.2224   -4.1140    0.0000 O   0  0  0  0  0  0  0  0  0  0  0  0
    2.9724   -2.8150    0.0000 P   0  0  0  0  0  0  0  0  0  0  0  0
    3.7224   -1.5159    0.0000 O   0  0  0  0  0  0  0  0  0  0  0  0
    1.6734   -2.0650    0.0000 O   0  0  0  0  0  0  0  0  0  0  0  0
    1.6734   -0.5650    0.0000 C   0  0  0  0  0  0  0  0  0  0  0  0
    0.3743    0.1850    0.0000 C   0  0  0  0  0  0  0  0  0  0  0  0
    4.2715   -3.5650    0.0000 S   0  0  0  0  0  0  0  0  0  0  0  0
    5.5706   -2.8150    0.0000 C   0  0  0  0  0  0  0  0  0  0  0  0
    6.8695   -3.5650    0.0000 C   0  0  0  0  0  0  0  0  0  0  0  0
    8.1685   -2.8150    0.0000 N   0  0  0  0  0  0  0  0  0  0  0  0
    9.4676   -3.5650    0.0000 C   0  0  0  0  0  0  0  0  0  0  0  0
    9.4676   -5.0650    0.0000 C   0  0  0  0  0  0  0  0  0  0  0  0
    8.1685   -1.3150    0.0000 C   0  0  0  0  0  0  0  0  0  0  0  0
    9.4676   -0.5650    0.0000 C   0  0  0  0  0  0  0  0  0  0  0  0
  1  2  1  0  0  0  0
  2  3  1  0  0  0  0
  3  4  1  0  0  0  0
  4  5  2  0  0  0  0
  4  6  1  0  0  0  0
  4  9  1  0  0  0  0
  6  7  1  0  0  0  0
  7  8  1  0  0  0  0
  9 10  1  0  0  0  0
 10 11  1  0  0  0  0
 11 12  1  0  0  0  0
 12 13  1  0  0  0  0
 12 15  1  0  0  0  0
 13 14  1  0  0  0  0
 15 16  1  0  0  0  0
M  END
> <Inchi_key>
PJISLFCKHOHLLP-UHFFFAOYSA-N

> <Source>
Mulliner

> <ID>
HT3189

> <H_MFHB>
0

> <CAS>


> <Cholestasis>


> <Name>


> <Class>
0

$$$$