
  -INDIGO-08031710012D

  8  7  0  0  0  0  0  0  0  0999 V2000
    5.0105   -1.9050    0.0000 C   0  0  0  0  0  0  0  0  0  0  0  0
    3.7114   -2.6550    0.0000 O   0  0  0  0  0  0  0  0  0  0  0  0
    2.4124   -1.9050    0.0000 C   0  0  0  0  0  0  0  0  0  0  0  0
    1.6624   -3.2041    0.0000 F   0  0  0  0  0  0  0  0  0  0  0  0
    3.1624   -0.6060    0.0000 F   0  0  0  0  0  0  0  0  0  0  0  0
    1.1133   -1.1550    0.0000 C   0  0  0  0  0  0  0  0  0  0  0  0
    1.1133    0.3450    0.0000 Cl  0  0  0  0  0  0  0  0  0  0  0  0
   -0.1857   -1.9050    0.0000 Cl  0  0  0  0  0  0  0  0  0  0  0  0
  1  2  1  0  0  0  0
  2  3  1  0  0  0  0
  3  4  1  0  0  0  0
  3  5  1  0  0  0  0
  3  6  1  0  0  0  0
  6  7  1  0  0  0  0
  6  8  1  0  0  0  0
M  END
> <Inchi_key>
RFKMCNOHBTXSMU-UHFFFAOYSA-N

> <Source>
Mulliner

> <ID>
HT1353

> <H_MFHB>
0

> <CAS>
76-38-0

> <Cholestasis>


> <Name>
methoxyflurane

> <Class>
0

$$$$