

  -INDIGO-08031710012D

 26 26  0  0  0  0  0  0  0  0999 V2000
   28.0639    6.7697    0.0000 C   0  0  0  0  0  0  0  0  0  0  0  0
   26.7648    7.5197    0.0000 C   0  0  0  0  0  0  0  0  0  0  0  0
   25.4660    6.7697    0.0000 C   0  0  0  0  0  0  0  0  0  0  0  0
   24.1669    7.5197    0.0000 C   0  0  0  0  0  0  0  0  0  0  0  0
   22.8678    6.7697    0.0000 C   0  0  0  0  0  0  0  0  0  0  0  0
   21.5686    7.5197    0.0000 C   0  0  0  0  0  0  0  0  0  0  0  0
   20.2699    6.7697    0.0000 C   0  0  0  0  0  0  0  0  0  0  0  0
   18.9708    7.5197    0.0000 C   0  0  0  0  0  0  0  0  0  0  0  0
   17.6716    6.7697    0.0000 C   0  0  0  0  0  0  0  0  0  0  0  0
   16.3725    7.5197    0.0000 C   0  0  0  0  0  0  0  0  0  0  0  0
   15.0737    6.7697    0.0000 C   0  0  0  0  0  0  0  0  0  0  0  0
   13.7746    7.5197    0.0000 C   0  0  0  0  0  0  0  0  0  0  0  0
   12.4755    6.7697    0.0000 C   0  0  0  0  0  0  0  0  0  0  0  0
   11.1763    7.5197    0.0000 C   0  0  0  0  0  0  0  0  0  0  0  0
    9.8772    6.7697    0.0000 C   0  0  0  0  0  0  0  0  0  0  0  0
    8.5785    7.5197    0.0000 C   0  0  0  0  0  0  0  0  0  0  0  0
    7.2793    6.7697    0.0000 N   0  0  0  0  0  0  0  0  0  0  0  0
    6.5293    8.0687    0.0000 C   0  0  0  0  0  0  0  0  0  0  0  0
    8.0294    5.4707    0.0000 C   0  0  0  0  0  0  0  0  0  0  0  0
    5.9802    6.0197    0.0000 C   0  0  0  0  0  0  0  0  0  0  0  0
    4.6815    6.7697    0.0000 C   0  0  0  0  0  0  0  0  0  0  0  0
    3.3823    6.0197    0.0000 C   0  0  0  0  0  0  0  0  0  0  0  0
    2.0832    6.7697    0.0000 C   0  0  0  0  0  0  0  0  0  0  0  0
    2.0832    8.2697    0.0000 C   0  0  0  0  0  0  0  0  0  0  0  0
    3.3823    9.0197    0.0000 C   0  0  0  0  0  0  0  0  0  0  0  0
    4.6815    8.2697    0.0000 C   0  0  0  0  0  0  0  0  0  0  0  0
  1  2  1  0  0  0  0
  2  3  1  0  0  0  0
  3  4  1  0  0  0  0
  4  5  1  0  0  0  0
  5  6  1  0  0  0  0
  6  7  1  0  0  0  0
  7  8  1  0  0  0  0
  8  9  1  0  0  0  0
  9 10  1  0  0  0  0
 10 11  1  0  0  0  0
 11 12  1  0  0  0  0
 12 13  1  0  0  0  0
 13 14  1  0  0  0  0
 14 15  1  0  0  0  0
 15 16  1  0  0  0  0
 16 17  1  0  0  0  0
 17 18  1  0  0  0  0
 17 19  1  0  0  0  0
 17 20  1  0  0  0  0
 20 21  1  0  0  0  0
 22 21  2  0  0  0  0
 21 26  1  0  0  0  0
 23 22  1  0  0  0  0
 24 23  2  0  0  0  0
 25 24  1  0  0  0  0
 26 25  2  0  0  0  0
M  CHG  1  17   1
M  END
> <Inchi_key>
QDYLMAYUEZBUFO-UHFFFAOYSA-N

> <Source>
Mulliner

> <ID>
HT3640

> <H_MFHB>
0

> <CAS>


> <Cholestasis>


> <Name>


> <Class>
0


$$$$