

  -INDIGO-08031710012D

 43 49  0  0  0  0  0  0  0  0999 V2000
   -5.4339   -9.3882    0.0000 C   0  0  0  0  0  0  0  0  0  0  0  0
   -4.6866  -10.6888    0.0000 C   0  0  0  0  0  0  0  0  0  0  0  0
   -5.4395  -11.9861    0.0000 C   0  0  0  0  0  0  0  0  0  0  0  0
   -3.1866  -10.6921    0.0000 C   0  0  0  0  0  0  0  0  0  0  0  0
   -2.4340   -9.3947    0.0000 C   0  0  0  0  0  0  0  0  0  0  0  0
   -0.9339   -9.3979    0.0000 N   0  0  0  0  0  0  0  0  0  0  0  0
    0.0674  -10.5148    0.0000 C   0  0  0  0  0  0  0  0  0  0  0  0
   -0.2475  -11.9815    0.0000 O   0  0  0  0  0  0  0  0  0  0  0  0
    1.4389   -9.9078    0.0000 C   0  0  0  0  0  0  0  0  0  0  0  0
    2.9389   -9.9044    0.0000 N   0  0  0  0  0  0  0  0  0  0  0  0
    3.6862   -8.6037    0.0000 C   0  0  0  0  0  0  0  0  0  0  0  0
    2.9333   -7.3064    0.0000 O   0  0  0  0  0  0  0  0  0  0  0  0
    5.1862   -8.6004    0.0000 C   0  0  0  0  0  0  0  0  0  0  0  0
    5.9391   -9.8978    0.0000 C   0  0  0  0  0  0  0  0  0  0  0  0
    7.4389   -9.8945    0.0000 N   0  0  0  0  0  0  0  0  0  0  0  0
    8.2019  -11.1860    0.0000 C   0  0  0  0  0  0  0  0  0  0  0  0
    8.1760   -8.5614    0.0000 C   0  0  0  0  0  0  0  0  0  0  0  0
    9.6429   -8.5403    0.0000 C   0  0  0  0  0  0  0  0  0  0  0  0
   10.3583   -7.2625    0.0000 C   0  0  0  0  0  0  0  0  0  0  0  0
   11.8227   -6.9505    0.0000 C   0  0  0  0  0  0  0  0  0  0  0  0
   12.9978   -7.8828    0.0000 Br  0  0  0  0  0  0  0  0  0  0  0  0
   11.7861   -5.0850    0.0000 N   0  0  0  0  0  0  0  0  0  0  0  0
   10.3212   -4.7222    0.0000 C   0  0  0  0  0  0  0  0  0  0  0  0
    9.5644   -3.4598    0.0000 C   0  0  0  0  0  0  0  0  0  0  0  0
    8.0953   -3.4835    0.0000 C   0  0  0  0  0  0  0  0  0  0  0  0
    7.3891   -4.7642    0.0000 C   0  0  0  0  0  0  0  0  0  0  0  0
    8.1363   -6.0212    0.0000 C   0  0  0  0  0  0  0  0  0  0  0  0
    7.4288   -7.3043    0.0000 C   0  0  0  0  0  0  0  0  0  0  0  0
    5.9332   -7.2997    0.0000 C   0  0  0  0  0  0  0  0  0  0  0  0
    9.6035   -6.0027    0.0000 C   0  0  0  0  0  0  0  0  0  0  0  0
    1.2855   -8.4156    0.0000 O   0  0  0  0  0  0  0  0  0  0  0  0
   -0.1811   -8.1005    0.0000 C   0  0  0  0  0  0  0  0  0  0  0  0
    0.7032   -6.8889    0.0000 O   0  0  0  0  0  0  0  0  0  0  0  0
   -0.9283   -6.7999    0.0000 C   0  0  0  0  0  0  0  0  0  0  0  0
   -0.4616   -5.3742    0.0000 C   0  0  0  0  0  0  0  0  0  0  0  0
   -1.6733   -4.4900    0.0000 C   0  0  0  0  0  0  0  0  0  0  0  0
   -2.8886   -5.3690    0.0000 C   0  0  0  0  0  0  0  0  0  0  0  0
   -2.4281   -6.7966    0.0000 N   0  0  0  0  0  0  0  0  0  0  0  0
   -3.1809   -8.0940    0.0000 C   0  0  0  0  0  0  0  0  0  0  0  0
   -4.6810   -8.0907    0.0000 O   0  0  0  0  0  0  0  0  0  0  0  0
    2.1346  -11.2367    0.0000 C   0  0  0  0  0  0  0  0  0  0  0  0
    3.6333  -11.2988    0.0000 C   0  0  0  0  0  0  0  0  0  0  0  0
    1.3314  -12.5035    0.0000 C   0  0  0  0  0  0  0  0  0  0  0  0
  1  2  1  0  0  0  0
  2  3  1  0  0  0  0
  2  4  1  0  0  0  0
  4  5  1  0  0  0  0
  6  5  1  0  0  0  0
  5 39  1  0  0  0  0
  7  6  1  0  0  0  0
  6 32  1  0  0  0  0
  7  8  2  0  0  0  0
  9  7  1  0  0  0  0
  9 10  1  0  0  0  0
 31  9  1  0  0  0  0
  9 41  1  0  0  0  0
 10 11  1  0  0  0  0
 11 12  2  0  0  0  0
 11 13  1  0  0  0  0
 14 13  1  0  0  0  0
 13 29  1  0  0  0  0
 15 14  1  0  0  0  0
 15 16  1  0  0  0  0
 17 15  1  0  0  0  0
 18 17  1  0  0  0  0
 17 28  1  0  0  0  0
 19 18  1  0  0  0  0
 20 19  2  0  0  0  0
 19 30  1  0  0  0  0
 20 21  1  0  0  0  0
 22 20  1  0  0  0  0
 23 22  1  0  0  0  0
 23 24  1  0  0  0  0
 30 23  2  0  0  0  0
 24 25  2  0  0  0  0
 25 26  1  0  0  0  0
 26 27  2  0  0  0  0
 28 27  1  0  0  0  0
 27 30  1  0  0  0  0
 29 28  2  0  0  0  0
 32 31  1  0  0  0  0
 32 33  1  0  0  0  0
 34 32  1  0  0  0  0
 35 34  1  0  0  0  0
 34 38  1  0  0  0  0
 36 35  1  0  0  0  0
 37 36  1  0  0  0  0
 38 37  1  0  0  0  0
 39 38  1  0  0  0  0
 39 40  2  0  0  0  0
 41 42  1  0  0  0  0
 41 43  1  0  0  0  0
M  END
> <Inchi_key>
OZVBMTJYIDMWIL-UHFFFAOYSA-N

> <Source>
Mulliner , Kotsampasakou

> <ID>
EK0071;HT0310

> <H_MFHB>
0

> <CAS>


> <Cholestasis>
0

> <Name>
bromocriptine mesylate;bromocriptine

> <Class>
0


$$$$