
  -INDIGO-08031710012D

 33 37  0  0  0  0  0  0  0  0999 V2000
   19.8933   11.4854    0.0000 N   0  0  0  0  0  0  0  0  0  0  0  0
   19.1433   10.1864    0.0000 C   0  0  0  0  0  0  0  0  0  0  0  0
   19.8933    8.8872    0.0000 O   0  0  0  0  0  0  0  0  0  0  0  0
   17.6434   10.1864    0.0000 C   0  0  0  0  0  0  0  0  0  0  0  0
   16.7618   11.3999    0.0000 O   0  0  0  0  0  0  0  0  0  0  0  0
   15.3349   10.9363    0.0000 C   0  0  0  0  0  0  0  0  0  0  0  0
   14.0360   11.6863    0.0000 C   0  0  0  0  0  0  0  0  0  0  0  0
   12.7369   10.9363    0.0000 C   0  0  0  0  0  0  0  0  0  0  0  0
   12.7369    9.4363    0.0000 C   0  0  0  0  0  0  0  0  0  0  0  0
   14.0360    8.6863    0.0000 C   0  0  0  0  0  0  0  0  0  0  0  0
   15.3349    9.4363    0.0000 C   0  0  0  0  0  0  0  0  0  0  0  0
   16.7618    8.9728    0.0000 C   0  0  0  0  0  0  0  0  0  0  0  0
   11.4380    8.6863    0.0000 N   0  0  0  0  0  0  0  0  0  0  0  0
   11.4380    7.1862    0.0000 C   0  0  0  0  0  0  0  0  0  0  0  0
   10.1389    6.4363    0.0000 C   0  0  0  0  0  0  0  0  0  0  0  0
    8.8397    7.1862    0.0000 N   0  0  0  0  0  0  0  0  0  0  0  0
    7.5409    6.4363    0.0000 C   0  0  0  0  0  0  0  0  0  0  0  0
    6.2417    7.1862    0.0000 C   0  0  0  0  0  0  0  0  0  0  0  0
    4.9426    6.4363    0.0000 C   0  0  0  0  0  0  0  0  0  0  0  0
    3.6437    7.1862    0.0000 C   0  0  0  0  0  0  0  0  0  0  0  0
    2.3446    6.4363    0.0000 C   0  0  0  0  0  0  0  0  0  0  0  0
    2.1878    4.9446    0.0000 C   0  0  0  0  0  0  0  0  0  0  0  0
    0.7206    4.6327    0.0000 N   0  0  0  0  0  0  0  0  0  0  0  0
   -0.0294    5.9317    0.0000 C   0  0  0  0  0  0  0  0  0  0  0  0
   -1.4966    6.2436    0.0000 C   0  0  0  0  0  0  0  0  0  0  0  0
   -1.9601    7.6702    0.0000 C   0  0  0  0  0  0  0  0  0  0  0  0
   -0.9564    8.7849    0.0000 C   0  0  0  0  0  0  0  0  0  0  0  0
    0.5108    8.4730    0.0000 C   0  0  0  0  0  0  0  0  0  0  0  0
    0.9744    7.0464    0.0000 C   0  0  0  0  0  0  0  0  0  0  0  0
   -1.4199   10.2115    0.0000 C   0  0  0  0  0  0  0  0  0  0  0  0
   -1.8834   11.6381    0.0000 N   0  0  0  0  0  0  0  0  0  0  0  0
    8.8397    8.6863    0.0000 C   0  0  0  0  0  0  0  0  0  0  0  0
   10.1389    9.4363    0.0000 C   0  0  0  0  0  0  0  0  0  0  0  0
  1  2  1  0  0  0  0
  2  3  2  0  0  0  0
  2  4  1  0  0  0  0
  5  4  1  0  0  0  0
  4 12  2  0  0  0  0
  6  5  1  0  0  0  0
  7  6  2  0  0  0  0
  6 11  1  0  0  0  0
  8  7  1  0  0  0  0
  9  8  2  0  0  0  0
 10  9  1  0  0  0  0
  9 13  1  0  0  0  0
 11 10  2  0  0  0  0
 12 11  1  0  0  0  0
 14 13  1  0  0  0  0
 13 33  1  0  0  0  0
 15 14  1  0  0  0  0
 16 15  1  0  0  0  0
 16 17  1  0  0  0  0
 32 16  1  0  0  0  0
 17 18  1  0  0  0  0
 18 19  1  0  0  0  0
 19 20  1  0  0  0  0
 20 21  1  0  0  0  0
 22 21  2  0  0  0  0
 21 29  1  0  0  0  0
 23 22  1  0  0  0  0
 24 23  1  0  0  0  0
 25 24  1  0  0  0  0
 24 29  2  0  0  0  0
 26 25  2  0  0  0  0
 27 26  1  0  0  0  0
 28 27  2  0  0  0  0
 27 30  1  0  0  0  0
 29 28  1  0  0  0  0
 30 31  3  0  0  0  0
 33 32  1  0  0  0  0
M  END
> <Inchi_key>
SGEGOXDYSFKCPT-UHFFFAOYSA-N

> <Source>
Mulliner

> <ID>
HT2178

> <H_MFHB>
0

> <CAS>


> <Cholestasis>


> <Name>
vilazodone hydrochloride

> <Class>
0

$$$$