

  -INDIGO-08031710012D

 20 21  0  0  0  0  0  0  0  0999 V2000
   -2.6261    8.0261    0.0000 C   0  0  0  0  0  0  0  0  0  0  0  0
   -2.6261    6.5261    0.0000 C   0  0  0  0  0  0  0  0  0  0  0  0
   -1.3270    5.7761    0.0000 N   0  0  0  0  0  0  0  0  0  0  0  0
   -0.0281    6.5261    0.0000 C   0  0  0  0  0  0  0  0  0  0  0  0
    1.2710    5.7761    0.0000 C   0  0  0  0  0  0  0  0  0  0  0  0
    1.2710    4.2761    0.0000 C   0  0  0  0  0  0  0  0  0  0  0  0
   -0.0281    3.5261    0.0000 N   0  0  0  0  0  0  0  0  0  0  0  0
   -1.3270    4.2761    0.0000 C   0  0  0  0  0  0  0  0  0  0  0  0
   -2.6261    3.5261    0.0000 O   0  0  0  0  0  0  0  0  0  0  0  0
    2.5701    3.5261    0.0000 N   0  0  0  0  0  0  0  0  0  0  0  0
    3.8691    4.2761    0.0000 S   0  0  0  0  0  0  0  0  0  0  0  0
    4.6191    2.9770    0.0000 O   0  0  0  0  0  0  0  0  0  0  0  0
    3.1191    5.5751    0.0000 O   0  0  0  0  0  0  0  0  0  0  0  0
    5.1682    5.0261    0.0000 C   0  0  0  0  0  0  0  0  0  0  0  0
    5.1682    6.5261    0.0000 C   0  0  0  0  0  0  0  0  0  0  0  0
    6.4673    7.2761    0.0000 C   0  0  0  0  0  0  0  0  0  0  0  0
    7.7662    6.5261    0.0000 C   0  0  0  0  0  0  0  0  0  0  0  0
    9.0653    7.2761    0.0000 N   0  0  0  0  0  0  0  0  0  0  0  0
    7.7662    5.0261    0.0000 C   0  0  0  0  0  0  0  0  0  0  0  0
    6.4673    4.2761    0.0000 C   0  0  0  0  0  0  0  0  0  0  0  0
  1  2  1  0  0  0  0
  2  3  1  0  0  0  0
  4  3  1  0  0  0  0
  3  8  1  0  0  0  0
  5  4  2  0  0  0  0
  6  5  1  0  0  0  0
  7  6  2  0  0  0  0
  6 10  1  0  0  0  0
  8  7  1  0  0  0  0
  8  9  2  0  0  0  0
 10 11  1  0  0  0  0
 11 12  2  0  0  0  0
 11 13  2  0  0  0  0
 11 14  1  0  0  0  0
 15 14  2  0  0  0  0
 14 20  1  0  0  0  0
 16 15  1  0  0  0  0
 17 16  2  0  0  0  0
 17 18  1  0  0  0  0
 19 17  1  0  0  0  0
 20 19  2  0  0  0  0
M  END
> <Inchi_key>
SIBQAECNSSQUOD-UHFFFAOYSA-N

> <Source>
Mulliner

> <ID>
HT1936

> <H_MFHB>
0

> <CAS>


> <Cholestasis>


> <Name>
sulfacytine

> <Class>
0


$$$$