
  -INDIGO-08031710012D

  8  7  0  0  0  0  0  0  0  0999 V2000
    0.7500    2.2500    0.0000 C   0  0  0  0  0  0  0  0  0  0  0  0
    0.7500    0.7500    0.0000 C   0  0  0  0  0  0  0  0  0  0  0  0
    0.7500   -0.7500    0.0000 C   0  0  0  0  0  0  0  0  0  0  0  0
   -0.7500    0.7500    0.0000 O   0  0  0  0  0  0  0  0  0  0  0  0
    2.2500    0.7500    0.0000 C   0  0  0  0  0  0  0  0  0  0  0  0
    2.2500   -0.7500    0.0000 Cl  0  0  0  0  0  0  0  0  0  0  0  0
    2.2500    2.2500    0.0000 Cl  0  0  0  0  0  0  0  0  0  0  0  0
    3.7500    0.7500    0.0000 Cl  0  0  0  0  0  0  0  0  0  0  0  0
  1  2  1  0  0  0  0
  2  3  1  0  0  0  0
  2  4  1  0  0  0  0
  2  5  1  0  0  0  0
  5  6  1  0  0  0  0
  5  7  1  0  0  0  0
  5  8  1  0  0  0  0
M  END
> <Inchi_key>
OSASVXMJTNOKOY-UHFFFAOYSA-N

> <Source>
Mulliner

> <ID>
HT2759

> <H_MFHB>
0

> <CAS>


> <Cholestasis>


> <Name>


> <Class>
0

$$$$