
  -INDIGO-08031710012D

 39 39  0  0  0  0  0  0  0  0999 V2000
   14.9071  -14.9071    0.0000 C   0  0  0  0  0  0  0  0  0  0  0  0
   14.9071  -13.4071    0.0000 O   0  0  0  0  0  0  0  0  0  0  0  0
   13.6080  -12.6571    0.0000 C   0  0  0  0  0  0  0  0  0  0  0  0
   13.6080  -11.1572    0.0000 C   0  0  0  0  0  0  0  0  0  0  0  0
   12.3090  -10.4072    0.0000 C   0  0  0  0  0  0  0  0  0  0  0  0
   12.3090   -8.9070    0.0000 O   0  0  0  0  0  0  0  0  0  0  0  0
   11.0099   -8.1570    0.0000 C   0  0  0  0  0  0  0  0  0  0  0  0
    9.7111   -8.9070    0.0000 C   0  0  0  0  0  0  0  0  0  0  0  0
    8.4118   -8.1570    0.0000 C   0  0  0  0  0  0  0  0  0  0  0  0
    7.1130   -8.9070    0.0000 C   0  0  0  0  0  0  0  0  0  0  0  0
    7.1130  -10.4072    0.0000 C   0  0  0  0  0  0  0  0  0  0  0  0
    5.8139  -11.1572    0.0000 C   0  0  0  0  0  0  0  0  0  0  0  0
    4.5149  -10.4072    0.0000 C   0  0  0  0  0  0  0  0  0  0  0  0
    4.5149   -8.9070    0.0000 N   0  0  0  0  0  0  0  0  0  0  0  0
    3.2158  -11.1572    0.0000 C   0  0  0  0  0  0  0  0  0  0  0  0
    3.2158  -12.6571    0.0000 O   0  0  0  0  0  0  0  0  0  0  0  0
    1.9167  -10.4072    0.0000 C   0  0  0  0  0  0  0  0  0  0  0  0
    0.6177  -11.1572    0.0000 C   0  0  0  0  0  0  0  0  0  0  0  0
    0.6177  -12.6571    0.0000 C   0  0  0  0  0  0  0  0  0  0  0  0
    1.9167  -13.4071    0.0000 C   0  0  0  0  0  0  0  0  0  0  0  0
   -0.6814  -13.4071    0.0000 C   0  0  0  0  0  0  0  0  0  0  0  0
   -0.6814  -10.4072    0.0000 C   0  0  0  0  0  0  0  0  0  0  0  0
   -1.9804  -11.1572    0.0000 O   0  0  0  0  0  0  0  0  0  0  0  0
   -0.6814   -8.9070    0.0000 N   0  0  0  0  0  0  0  0  0  0  0  0
   -1.9804   -8.1570    0.0000 C   0  0  0  0  0  0  0  0  0  0  0  0
   -1.9804   -6.6571    0.0000 C   0  0  0  0  0  0  0  0  0  0  0  0
   -3.4804   -6.6571    0.0000 C   0  0  0  0  0  0  0  0  0  0  0  0
   -0.4805   -6.6571    0.0000 C   0  0  0  0  0  0  0  0  0  0  0  0
   -1.9804   -5.1571    0.0000 C   0  0  0  0  0  0  0  0  0  0  0  0
   -0.6814   -4.4071    0.0000 O   0  0  0  0  0  0  0  0  0  0  0  0
   -3.2795   -4.4071    0.0000 N   0  0  0  0  0  0  0  0  0  0  0  0
    8.4118  -11.1572    0.0000 C   0  0  0  0  0  0  0  0  0  0  0  0
    9.7111  -10.4072    0.0000 C   0  0  0  0  0  0  0  0  0  0  0  0
    8.4118  -12.6571    0.0000 C   0  0  0  0  0  0  0  0  0  0  0  0
    8.4118   -6.6571    0.0000 C   0  0  0  0  0  0  0  0  0  0  0  0
    9.7111   -5.9071    0.0000 C   0  0  0  0  0  0  0  0  0  0  0  0
   11.0099   -6.6571    0.0000 C   0  0  0  0  0  0  0  0  0  0  0  0
   12.3090   -5.9071    0.0000 O   0  0  0  0  0  0  0  0  0  0  0  0
   12.3090   -4.4071    0.0000 C   0  0  0  0  0  0  0  0  0  0  0  0
  1  2  1  0  0  0  0
  2  3  1  0  0  0  0
  3  4  1  0  0  0  0
  4  5  1  0  0  0  0
  5  6  1  0  0  0  0
  6  7  1  0  0  0  0
  8  7  2  0  0  0  0
  7 37  1  0  0  0  0
  9  8  1  0  0  0  0
  9 10  1  0  0  0  0
 35  9  2  0  0  0  0
 10 11  1  0  0  0  0
 11 12  1  0  0  0  0
 11 32  1  0  0  0  0
 12 13  1  0  0  0  0
 13 14  1  0  0  0  0
 13 15  1  0  0  0  0
 15 16  1  0  0  0  0
 15 17  1  0  0  0  0
 17 18  1  0  0  0  0
 18 19  1  0  0  0  0
 18 22  1  0  0  0  0
 19 20  1  0  0  0  0
 19 21  1  0  0  0  0
 22 23  2  0  0  0  0
 22 24  1  0  0  0  0
 24 25  1  0  0  0  0
 25 26  1  0  0  0  0
 26 27  1  0  0  0  0
 26 28  1  0  0  0  0
 26 29  1  0  0  0  0
 29 30  2  0  0  0  0
 29 31  1  0  0  0  0
 32 33  1  0  0  0  0
 32 34  1  0  0  0  0
 36 35  1  0  0  0  0
 37 36  2  0  0  0  0
 37 38  1  0  0  0  0
 38 39  1  0  0  0  0
M  END
> <Inchi_key>
UXOWGYHJODZGMF-UHFFFAOYSA-N

> <Source>
Mulliner , Kotsampasakou

> <ID>
EK0017;HT0098

> <H_MFHB>
0

> <CAS>


> <Cholestasis>
0

> <Name>
aliskiren

> <Class>
0

$$$$