

  -INDIGO-08031710012D

 19 21  0  0  0  0  0  0  0  0999 V2000
    7.8913    4.3530    0.0000 C   0  0  0  0  0  0  0  0  0  0  0  0
    7.0912    3.0842    0.0000 C   0  0  0  0  0  0  0  0  0  0  0  0
    7.7900    1.7569    0.0000 C   0  0  0  0  0  0  0  0  0  0  0  0
    6.9899    0.4881    0.0000 O   0  0  0  0  0  0  0  0  0  0  0  0
    9.2888    1.6984    0.0000 O   0  0  0  0  0  0  0  0  0  0  0  0
    5.5924    3.1427    0.0000 C   0  0  0  0  0  0  0  0  0  0  0  0
    4.7923    1.8739    0.0000 C   0  0  0  0  0  0  0  0  0  0  0  0
    3.2934    1.9325    0.0000 C   0  0  0  0  0  0  0  0  0  0  0  0
    2.5945    3.2598    0.0000 C   0  0  0  0  0  0  0  0  0  0  0  0
    3.3948    4.5286    0.0000 C   0  0  0  0  0  0  0  0  0  0  0  0
    4.8936    4.4700    0.0000 C   0  0  0  0  0  0  0  0  0  0  0  0
    2.4354    5.6816    0.0000 N   0  0  0  0  0  0  0  0  0  0  0  0
    1.0423    5.1254    0.0000 C   0  0  0  0  0  0  0  0  0  0  0  0
   -0.3033    5.7885    0.0000 C   0  0  0  0  0  0  0  0  0  0  0  0
   -1.5503    4.9548    0.0000 C   0  0  0  0  0  0  0  0  0  0  0  0
   -1.4518    3.4581    0.0000 C   0  0  0  0  0  0  0  0  0  0  0  0
   -2.6988    2.6244    0.0000 Cl  0  0  0  0  0  0  0  0  0  0  0  0
   -0.1063    2.7950    0.0000 C   0  0  0  0  0  0  0  0  0  0  0  0
    1.1407    3.6286    0.0000 C   0  0  0  0  0  0  0  0  0  0  0  0
  1  2  1  0  0  0  0
  2  3  1  0  0  0  0
  2  6  1  0  0  0  0
  3  4  2  0  0  0  0
  3  5  1  0  0  0  0
  7  6  2  0  0  0  0
  6 11  1  0  0  0  0
  8  7  1  0  0  0  0
  9  8  2  0  0  0  0
  9 10  1  0  0  0  0
 19  9  1  0  0  0  0
 11 10  2  0  0  0  0
 10 12  1  0  0  0  0
 12 13  1  0  0  0  0
 14 13  1  0  0  0  0
 13 19  2  0  0  0  0
 15 14  2  0  0  0  0
 16 15  1  0  0  0  0
 16 17  1  0  0  0  0
 18 16  2  0  0  0  0
 19 18  1  0  0  0  0
M  END
> <Inchi_key>
PUXBGTOOZJQSKH-UHFFFAOYSA-N

> <Source>
Mulliner

> <ID>
HT0388

> <H_MFHB>
0

> <CAS>


> <Cholestasis>


> <Name>
carprofen

> <Class>
0


$$$$