

  -INDIGO-08031710012D

 35 40  0  0  0  0  0  0  0  0999 V2000
   13.5898   -0.9300    0.0000 C   0  0  0  0  0  0  0  0  0  0  0  0
   12.8293    0.3630    0.0000 N   0  0  0  0  0  0  0  0  0  0  0  0
   13.5687    1.6679    0.0000 C   0  0  0  0  0  0  0  0  0  0  0  0
   11.3294    0.3507    0.0000 C   0  0  0  0  0  0  0  0  0  0  0  0
   10.5689    1.6439    0.0000 C   0  0  0  0  0  0  0  0  0  0  0  0
   11.3094    2.9453    0.0000 C   0  0  0  0  0  0  0  0  0  0  0  0
   10.5647    4.2423    0.0000 C   0  0  0  0  0  0  0  0  0  0  0  0
    9.2288    4.5030    0.0000 N   0  0  0  0  0  0  0  0  0  0  0  0
    7.9784    3.7879    0.0000 C   0  0  0  0  0  0  0  0  0  0  0  0
    6.8533    4.8238    0.0000 C   0  0  0  0  0  0  0  0  0  0  0  0
    5.5606    4.9582    0.0000 C   0  0  0  0  0  0  0  0  0  0  0  0
    4.2968    4.1473    0.0000 C   0  0  0  0  0  0  0  0  0  0  0  0
    3.1352    5.0958    0.0000 C   0  0  0  0  0  0  0  0  0  0  0  0
    1.6846    4.7148    0.0000 O   0  0  0  0  0  0  0  0  0  0  0  0
    3.6811    6.4932    0.0000 N   0  0  0  0  0  0  0  0  0  0  0  0
    5.1809    6.4088    0.0000 C   0  0  0  0  0  0  0  0  0  0  0  0
    6.1318    7.5690    0.0000 O   0  0  0  0  0  0  0  0  0  0  0  0
    4.4504    3.2046    0.0000 C   0  0  0  0  0  0  0  0  0  0  0  0
    5.9132    2.7595    0.0000 C   0  0  0  0  0  0  0  0  0  0  0  0
    5.9324    1.3197    0.0000 N   0  0  0  0  0  0  0  0  0  0  0  0
    6.8359    0.3008    0.0000 C   0  0  0  0  0  0  0  0  0  0  0  0
    8.3325    0.3234    0.0000 C   0  0  0  0  0  0  0  0  0  0  0  0
    9.0692    1.6290    0.0000 O   0  0  0  0  0  0  0  0  0  0  0  0
    4.5590    0.7686    0.0000 C   0  0  0  0  0  0  0  0  0  0  0  0
    4.0123   -0.6237    0.0000 C   0  0  0  0  0  0  0  0  0  0  0  0
    2.5287   -0.8496    0.0000 C   0  0  0  0  0  0  0  0  0  0  0  0
    1.5921    0.3206    0.0000 C   0  0  0  0  0  0  0  0  0  0  0  0
    2.1380    1.7185    0.0000 C   0  0  0  0  0  0  0  0  0  0  0  0
    3.6165    1.9464    0.0000 C   0  0  0  0  0  0  0  0  0  0  0  0
    7.5132    6.1806    0.0000 C   0  0  0  0  0  0  0  0  0  0  0  0
    6.9585    7.5700    0.0000 C   0  0  0  0  0  0  0  0  0  0  0  0
    7.8843    8.7497    0.0000 C   0  0  0  0  0  0  0  0  0  0  0  0
    9.3687    8.5375    0.0000 C   0  0  0  0  0  0  0  0  0  0  0  0
    9.9274    7.1448    0.0000 C   0  0  0  0  0  0  0  0  0  0  0  0
    9.0056    5.9665    0.0000 C   0  0  0  0  0  0  0  0  0  0  0  0
  1  2  1  0  0  0  0
  2  3  1  0  0  0  0
  2  4  1  0  0  0  0
  4  5  1  0  0  0  0
  6  5  1  0  0  0  0
  5 23  1  0  0  0  0
  7  6  1  0  0  0  0
  8  7  1  0  0  0  0
  8  9  1  0  0  0  0
 35  8  1  0  0  0  0
  9 10  2  0  0  0  0
 11 10  1  0  0  0  0
 10 30  1  0  0  0  0
 11 12  2  0  0  0  0
 16 11  1  0  0  0  0
 12 13  1  0  0  0  0
 18 12  1  0  0  0  0
 13 14  2  0  0  0  0
 13 15  1  0  0  0  0
 15 16  1  0  0  0  0
 16 17  2  0  0  0  0
 18 19  2  0  0  0  0
 29 18  1  0  0  0  0
 19 20  1  0  0  0  0
 21 20  1  0  0  0  0
 20 24  1  0  0  0  0
 22 21  1  0  0  0  0
 23 22  1  0  0  0  0
 25 24  2  0  0  0  0
 24 29  1  0  0  0  0
 26 25  1  0  0  0  0
 27 26  2  0  0  0  0
 28 27  1  0  0  0  0
 29 28  2  0  0  0  0
 31 30  2  0  0  0  0
 30 35  1  0  0  0  0
 32 31  1  0  0  0  0
 33 32  2  0  0  0  0
 34 33  1  0  0  0  0
 35 34  2  0  0  0  0
M  END
> <Inchi_key>
ZCBUQCWBWNUWSU-UHFFFAOYSA-N

> <Source>
Mulliner

> <ID>
HT1855

> <H_MFHB>
0

> <CAS>
169939-94-0

> <Cholestasis>


> <Name>
ruboxistaurin

> <Class>
0


$$$$