
  -INDIGO-08031710012D

  7  6  0  0  0  0  0  0  0  0999 V2000
    6.0764    0.4993    0.0000 C   0  0  0  0  0  0  0  0  0  0  0  0
    4.7773    1.2493    0.0000 C   0  0  0  0  0  0  0  0  0  0  0  0
    3.4783    0.4993    0.0000 C   0  0  0  0  0  0  0  0  0  0  0  0
    2.1793    1.2493    0.0000 C   0  0  0  0  0  0  0  0  0  0  0  0
    2.1793    2.7493    0.0000 C   0  0  0  0  0  0  0  0  0  0  0  0
    1.4293   -0.0497    0.0000 F   0  0  0  0  0  0  0  0  0  0  0  0
    0.6793    1.2493    0.0000 F   0  0  0  0  0  0  0  0  0  0  0  0
  1  2  1  0  0  0  0
  2  3  1  0  0  0  0
  3  4  1  0  0  0  0
  4  5  1  0  0  0  0
  4  6  1  0  0  0  0
  4  7  1  0  0  0  0
M  END
> <Inchi_key>
QSWGSLWFQDIXSH-UHFFFAOYSA-N

> <Source>
Mulliner

> <ID>
HT0027

> <H_MFHB>
0

> <CAS>


> <Cholestasis>


> <Name>
2,2-difluoropentane

> <Class>
0

$$$$