

  -INDIGO-08031709442D

 17 18  0  0  0  0  0  0  0  0999 V2000
    0.2947    0.2947    0.0000 O   0  0  0  0  0  0  0  0  0  0  0  0
    0.2947   -1.2053    0.0000 C   0  0  0  0  0  0  0  0  0  0  0  0
   -1.0043   -1.9553    0.0000 N   0  0  0  0  0  0  0  0  0  0  0  0
   -1.0043   -3.4553    0.0000 C   0  0  0  0  0  0  0  0  0  0  0  0
   -2.3034   -4.2053    0.0000 O   0  0  0  0  0  0  0  0  0  0  0  0
    0.2947   -4.2053    0.0000 C   0  0  0  0  0  0  0  0  0  0  0  0
    1.5937   -3.4553    0.0000 C   0  0  0  0  0  0  0  0  0  0  0  0
    1.5937   -1.9553    0.0000 C   0  0  0  0  0  0  0  0  0  0  0  0
    2.3436   -0.6563    0.0000 C   0  0  0  0  0  0  0  0  0  0  0  0
    1.5937    0.6428    0.0000 C   0  0  0  0  0  0  0  0  0  0  0  0
    3.0938   -1.9553    0.0000 C   0  0  0  0  0  0  0  0  0  0  0  0
    3.8437   -3.2544    0.0000 C   0  0  0  0  0  0  0  0  0  0  0  0
    5.3437   -3.2544    0.0000 C   0  0  0  0  0  0  0  0  0  0  0  0
    6.0938   -1.9553    0.0000 C   0  0  0  0  0  0  0  0  0  0  0  0
    7.5937   -1.9553    0.0000 N   0  0  0  0  0  0  0  0  0  0  0  0
    5.3437   -0.6563    0.0000 C   0  0  0  0  0  0  0  0  0  0  0  0
    3.8437   -0.6563    0.0000 C   0  0  0  0  0  0  0  0  0  0  0  0
  1  2  2  0  0  0  0
  3  2  1  0  0  0  0
  2  8  1  0  0  0  0
  4  3  1  0  0  0  0
  4  5  2  0  0  0  0
  6  4  1  0  0  0  0
  7  6  1  0  0  0  0
  8  7  1  0  0  0  0
  8  9  1  0  0  0  0
  8 11  1  0  0  0  0
  9 10  1  0  0  0  0
 12 11  2  0  0  0  0
 11 17  1  0  0  0  0
 13 12  1  0  0  0  0
 14 13  2  0  0  0  0
 14 15  1  0  0  0  0
 16 14  1  0  0  0  0
 17 16  2  0  0  0  0
M  END
> <Inchi_key>
ROBVIMPUHSLWNV-UHFFFAOYSA-N

> <Source>
Kotsampasakou

> <ID>
EK0027

> <H_MFHB>


> <CAS>


> <Cholestasis>
0

> <Name>
amino-glutethimide

> <Class>
0


$$$$