

  -INDIGO-08031710012D

 36 39  0  0  0  0  0  0  0  0999 V2000
    0.0000    0.0000    0.0000 C   0  0  0  0  0  0  0  0  0  0  0  0
    1.5001    0.0000    0.0000 O   0  0  0  0  0  0  0  0  0  0  0  0
    2.2498    1.2990    0.0000 C   0  0  0  0  0  0  0  0  0  0  0  0
    3.7500    1.2990    0.0000 C   0  0  0  0  0  0  0  0  0  0  0  0
    4.5000    2.5981    0.0000 C   0  0  0  0  0  0  0  0  0  0  0  0
    6.0001    2.5981    0.0000 N   0  0  0  0  0  0  0  0  0  0  0  0
    6.7499    1.2990    0.0000 C   0  0  0  0  0  0  0  0  0  0  0  0
    6.0001    0.0000    0.0000 C   0  0  0  0  0  0  0  0  0  0  0  0
    6.7499   -1.2990    0.0000 C   0  0  0  0  0  0  0  0  0  0  0  0
    8.2500   -1.2990    0.0000 N   0  0  0  0  0  0  0  0  0  0  0  0
    9.0000    0.0000    0.0000 C   0  0  0  0  0  0  0  0  0  0  0  0
   10.5001    0.0000    0.0000 C   0  0  0  0  0  0  0  0  0  0  0  0
   11.2499    1.2990    0.0000 C   0  0  0  0  0  0  0  0  0  0  0  0
   12.7500    1.2990    0.0000 O   0  0  0  0  0  0  0  0  0  0  0  0
   13.5000    0.0000    0.0000 C   0  0  0  0  0  0  0  0  0  0  0  0
   15.0001    0.0000    0.0000 C   0  0  0  0  0  0  0  0  0  0  0  0
   15.7499   -1.2990    0.0000 C   0  0  0  0  0  0  0  0  0  0  0  0
   17.2500   -1.2990    0.0000 N   0  0  0  0  0  0  0  0  0  0  0  0
   18.0000    0.0000    0.0000 C   0  0  0  0  0  0  0  0  0  0  0  0
   19.5002    0.0000    0.0000 C   0  0  0  0  0  0  0  0  0  0  0  0
   20.2499   -1.2990    0.0000 N   0  0  0  0  0  0  0  0  0  0  0  0
   21.7500   -1.2990    0.0000 C   0  0  0  0  0  0  0  0  0  0  0  0
   19.5002   -2.5981    0.0000 C   0  0  0  0  0  0  0  0  0  0  0  0
   18.0000   -2.5981    0.0000 C   0  0  0  0  0  0  0  0  0  0  0  0
   10.5001    2.5981    0.0000 C   0  0  0  0  0  0  0  0  0  0  0  0
   11.2499    3.8971    0.0000 O   0  0  0  0  0  0  0  0  0  0  0  0
   10.5001    5.1962    0.0000 C   0  0  0  0  0  0  0  0  0  0  0  0
    9.0000    2.5981    0.0000 C   0  0  0  0  0  0  0  0  0  0  0  0
    8.2500    1.2990    0.0000 C   0  0  0  0  0  0  0  0  0  0  0  0
    4.5000    0.0000    0.0000 C   0  0  0  0  0  0  0  0  0  0  0  0
    2.9999    0.0000    0.0000 N   0  0  0  0  0  0  0  0  0  0  0  0
    3.7500    3.8971    0.0000 C   0  0  0  0  0  0  0  0  0  0  0  0
    4.5000    5.1962    0.0000 Cl  0  0  0  0  0  0  0  0  0  0  0  0
    2.2498    3.8971    0.0000 C   0  0  0  0  0  0  0  0  0  0  0  0
    1.5001    2.5981    0.0000 C   0  0  0  0  0  0  0  0  0  0  0  0
    0.0000    2.5981    0.0000 Cl  0  0  0  0  0  0  0  0  0  0  0  0
  1  2  1  0  0  0  0
  2  3  1  0  0  0  0
  4  3  2  0  0  0  0
  3 35  1  0  0  0  0
  5  4  1  0  0  0  0
  5  6  1  0  0  0  0
 32  5  2  0  0  0  0
  6  7  1  0  0  0  0
  8  7  2  0  0  0  0
  7 29  1  0  0  0  0
  9  8  1  0  0  0  0
  8 30  1  0  0  0  0
 10  9  2  0  0  0  0
 11 10  1  0  0  0  0
 12 11  1  0  0  0  0
 11 29  2  0  0  0  0
 13 12  2  0  0  0  0
 13 14  1  0  0  0  0
 25 13  1  0  0  0  0
 14 15  1  0  0  0  0
 15 16  1  0  0  0  0
 16 17  1  0  0  0  0
 17 18  1  0  0  0  0
 19 18  1  0  0  0  0
 18 24  1  0  0  0  0
 20 19  1  0  0  0  0
 21 20  1  0  0  0  0
 21 22  1  0  0  0  0
 23 21  1  0  0  0  0
 24 23  1  0  0  0  0
 25 26  1  0  0  0  0
 28 25  2  0  0  0  0
 26 27  1  0  0  0  0
 29 28  1  0  0  0  0
 30 31  3  0  0  0  0
 32 33  1  0  0  0  0
 34 32  1  0  0  0  0
 35 34  2  0  0  0  0
 35 36  1  0  0  0  0
M  END
> <Inchi_key>
UBPYILGKFZZVDX-UHFFFAOYSA-N

> <Source>
Mulliner

> <ID>
HT0301

> <H_MFHB>
0

> <CAS>


> <Cholestasis>


> <Name>
bosutinib monohydrate

> <Class>
0


$$$$