
  -INDIGO-08031710012D

 52 51  0  0  0  0  0  0  0  0999 V2000
   -6.9948  -27.8794    0.0000 C   0  0  0  0  0  0  0  0  0  0  0  0
   -6.9948  -26.3795    0.0000 C   0  0  0  0  0  0  0  0  0  0  0  0
   -5.6958  -25.6295    0.0000 C   0  0  0  0  0  0  0  0  0  0  0  0
   -5.6958  -24.1293    0.0000 C   0  0  0  0  0  0  0  0  0  0  0  0
   -4.3968  -23.3794    0.0000 C   0  0  0  0  0  0  0  0  0  0  0  0
   -4.3968  -21.8795    0.0000 C   0  0  0  0  0  0  0  0  0  0  0  0
   -3.0977  -21.1295    0.0000 C   0  0  0  0  0  0  0  0  0  0  0  0
   -3.0977  -19.6293    0.0000 C   0  0  0  0  0  0  0  0  0  0  0  0
   -1.7987  -18.8794    0.0000 C   0  0  0  0  0  0  0  0  0  0  0  0
   -0.4997  -19.6293    0.0000 C   0  0  0  0  0  0  0  0  0  0  0  0
    0.7993  -18.8794    0.0000 C   0  0  0  0  0  0  0  0  0  0  0  0
    2.0983  -19.6293    0.0000 C   0  0  0  0  0  0  0  0  0  0  0  0
    3.3974  -18.8794    0.0000 C   0  0  0  0  0  0  0  0  0  0  0  0
    4.6964  -19.6293    0.0000 C   0  0  0  0  0  0  0  0  0  0  0  0
    5.9954  -18.8794    0.0000 C   0  0  0  0  0  0  0  0  0  0  0  0
    7.2944  -19.6293    0.0000 C   0  0  0  0  0  0  0  0  0  0  0  0
    7.2944  -21.1295    0.0000 O   0  0  0  0  0  0  0  0  0  0  0  0
    8.5934  -18.8794    0.0000 O   0  0  0  0  0  0  0  0  0  0  0  0
    8.5934  -17.3795    0.0000 C   0  0  0  0  0  0  0  0  0  0  0  0
    9.8924  -16.6295    0.0000 C   0  0  0  0  0  0  0  0  0  0  0  0
    9.8924  -15.1293    0.0000 C   0  0  0  0  0  0  0  0  0  0  0  0
    8.5934  -14.3793    0.0000 O   0  0  0  0  0  0  0  0  0  0  0  0
    8.5934  -12.8794    0.0000 P   0  0  0  0  0  0  0  0  0  0  0  0
   10.0940  -12.8794    0.0000 O   0  0  0  0  0  0  0  0  0  0  0  0
    7.0935  -12.8794    0.0000 O   0  0  0  0  0  0  0  0  0  0  0  0
    8.5934  -11.3795    0.0000 O   0  0  0  0  0  0  0  0  0  0  0  0
    7.2944  -10.6293    0.0000 C   0  0  0  0  0  0  0  0  0  0  0  0
    7.2944   -9.1294    0.0000 C   0  0  0  0  0  0  0  0  0  0  0  0
    5.9954   -8.3794    0.0000 N   0  0  0  0  0  0  0  0  0  0  0  0
    5.2457   -9.6784    0.0000 C   0  0  0  0  0  0  0  0  0  0  0  0
    4.6964   -7.6295    0.0000 C   0  0  0  0  0  0  0  0  0  0  0  0
    6.7457   -7.0804    0.0000 C   0  0  0  0  0  0  0  0  0  0  0  0
   11.1921  -17.3795    0.0000 O   0  0  0  0  0  0  0  0  0  0  0  0
   12.4911  -16.6295    0.0000 C   0  0  0  0  0  0  0  0  0  0  0  0
   12.4911  -15.1293    0.0000 O   0  0  0  0  0  0  0  0  0  0  0  0
   13.7895  -17.3795    0.0000 C   0  0  0  0  0  0  0  0  0  0  0  0
   15.0891  -16.6295    0.0000 C   0  0  0  0  0  0  0  0  0  0  0  0
   16.3882  -17.3795    0.0000 C   0  0  0  0  0  0  0  0  0  0  0  0
   17.6872  -16.6295    0.0000 C   0  0  0  0  0  0  0  0  0  0  0  0
   18.9862  -17.3795    0.0000 C   0  0  0  0  0  0  0  0  0  0  0  0
   20.2852  -16.6295    0.0000 C   0  0  0  0  0  0  0  0  0  0  0  0
   21.5842  -17.3795    0.0000 C   0  0  0  0  0  0  0  0  0  0  0  0
   22.8832  -16.6295    0.0000 C   0  0  0  0  0  0  0  0  0  0  0  0
   24.1823  -17.3795    0.0000 C   0  0  0  0  0  0  0  0  0  0  0  0
   24.1823  -18.8794    0.0000 C   0  0  0  0  0  0  0  0  0  0  0  0
   25.4813  -19.6293    0.0000 C   0  0  0  0  0  0  0  0  0  0  0  0
   26.7803  -18.8794    0.0000 C   0  0  0  0  0  0  0  0  0  0  0  0
   28.0793  -19.6293    0.0000 C   0  0  0  0  0  0  0  0  0  0  0  0
   29.3783  -18.8794    0.0000 C   0  0  0  0  0  0  0  0  0  0  0  0
   30.6774  -19.6293    0.0000 C   0  0  0  0  0  0  0  0  0  0  0  0
   31.9764  -18.8794    0.0000 C   0  0  0  0  0  0  0  0  0  0  0  0
   33.2754  -19.6293    0.0000 C   0  0  0  0  0  0  0  0  0  0  0  0
  1  2  1  0  0  0  0
  2  3  1  0  0  0  0
  3  4  1  0  0  0  0
  4  5  1  0  0  0  0
  5  6  1  0  0  0  0
  6  7  1  0  0  0  0
  7  8  1  0  0  0  0
  8  9  1  0  0  0  0
  9 10  1  0  0  0  0
 10 11  1  0  0  0  0
 11 12  1  0  0  0  0
 12 13  1  0  0  0  0
 13 14  1  0  0  0  0
 14 15  1  0  0  0  0
 15 16  1  0  0  0  0
 16 17  2  0  0  0  0
 16 18  1  0  0  0  0
 18 19  1  0  0  0  0
 19 20  1  0  0  0  0
 20 21  1  0  0  0  0
 20 33  1  0  0  0  0
 21 22  1  0  0  0  0
 22 23  1  0  0  0  0
 23 24  2  0  0  0  0
 23 25  1  0  0  0  0
 23 26  1  0  0  0  0
 26 27  1  0  0  0  0
 27 28  1  0  0  0  0
 28 29  1  0  0  0  0
 29 30  1  0  0  0  0
 29 31  1  0  0  0  0
 29 32  1  0  0  0  0
 33 34  1  0  0  0  0
 34 35  2  0  0  0  0
 34 36  1  0  0  0  0
 36 37  1  0  0  0  0
 37 38  1  0  0  0  0
 38 39  1  0  0  0  0
 39 40  1  0  0  0  0
 40 41  1  0  0  0  0
 41 42  1  0  0  0  0
 42 43  1  0  0  0  0
 43 44  2  0  0  0  0
 44 45  1  0  0  0  0
 45 46  1  0  0  0  0
 46 47  1  0  0  0  0
 47 48  1  0  0  0  0
 48 49  1  0  0  0  0
 49 50  1  0  0  0  0
 50 51  1  0  0  0  0
 51 52  1  0  0  0  0
M  CHG  2  25  -1  29   1
M  END
> <Inchi_key>
WTJKGGKOPKCXLL-MRCUWXFGSA-N

> <Source>
Mulliner

> <ID>
HT3996

> <H_MFHB>
0

> <CAS>


> <Cholestasis>


> <Name>


> <Class>
0

$$$$