
  -INDIGO-08031710012D

 32 33  0  0  0  0  0  0  0  0999 V2000
   19.7801   -2.9765    0.0000 C   0  0  0  0  0  0  0  0  0  0  0  0
   18.4098   -2.3666    0.0000 S   0  0  0  0  0  0  0  0  0  0  0  0
   17.7998   -3.7368    0.0000 O   0  0  0  0  0  0  0  0  0  0  0  0
   19.0199   -0.9962    0.0000 O   0  0  0  0  0  0  0  0  0  0  0  0
   17.0396   -1.7565    0.0000 N   0  0  0  0  0  0  0  0  0  0  0  0
   16.8827   -0.2646    0.0000 C   0  0  0  0  0  0  0  0  0  0  0  0
   18.0963    0.6170    0.0000 O   0  0  0  0  0  0  0  0  0  0  0  0
   15.5124    0.3455    0.0000 C   0  0  0  0  0  0  0  0  0  0  0  0
   15.3555    1.8373    0.0000 C   0  0  0  0  0  0  0  0  0  0  0  0
   13.9853    2.4474    0.0000 C   0  0  0  0  0  0  0  0  0  0  0  0
   13.8284    3.9392    0.0000 C   0  0  0  0  0  0  0  0  0  0  0  0
   12.4581    4.5493    0.0000 C   0  0  0  0  0  0  0  0  0  0  0  0
   11.2445    3.6677    0.0000 C   0  0  0  0  0  0  0  0  0  0  0  0
    9.8743    4.2778    0.0000 C   0  0  0  0  0  0  0  0  0  0  0  0
    8.5753    3.5277    0.0000 C   0  0  0  0  0  0  0  0  0  0  0  0
    8.4186    2.0359    0.0000 C   0  0  0  0  0  0  0  0  0  0  0  0
    7.0481    1.4258    0.0000 C   0  0  0  0  0  0  0  0  0  0  0  0
    6.8915   -0.0660    0.0000 C   0  0  0  0  0  0  0  0  0  0  0  0
    8.1048   -0.9477    0.0000 O   0  0  0  0  0  0  0  0  0  0  0  0
    5.5212   -0.6761    0.0000 C   0  0  0  0  0  0  0  0  0  0  0  0
    5.3643   -2.1677    0.0000 O   0  0  0  0  0  0  0  0  0  0  0  0
    3.9938   -2.7780    0.0000 C   0  0  0  0  0  0  0  0  0  0  0  0
    2.7804   -1.8964    0.0000 C   0  0  0  0  0  0  0  0  0  0  0  0
    1.4102   -2.5065    0.0000 C   0  0  0  0  0  0  0  0  0  0  0  0
    1.2533   -3.9981    0.0000 C   0  0  0  0  0  0  0  0  0  0  0  0
    2.4669   -4.8798    0.0000 C   0  0  0  0  0  0  0  0  0  0  0  0
    3.8372   -4.2697    0.0000 C   0  0  0  0  0  0  0  0  0  0  0  0
    7.4606    4.5314    0.0000 C   0  0  0  0  0  0  0  0  0  0  0  0
    5.9933    4.2196    0.0000 O   0  0  0  0  0  0  0  0  0  0  0  0
    8.0706    5.9018    0.0000 C   0  0  0  0  0  0  0  0  0  0  0  0
    9.5624    5.7449    0.0000 C   0  0  0  0  0  0  0  0  0  0  0  0
   10.5660    6.8596    0.0000 O   0  0  0  0  0  0  0  0  0  0  0  0
  1  2  1  0  0  0  0
  2  3  2  0  0  0  0
  2  4  1  0  0  0  0
  2  5  2  0  0  0  0
  5  6  1  0  0  0  0
  6  7  2  0  0  0  0
  6  8  1  0  0  0  0
  8  9  1  0  0  0  0
  9 10  1  0  0  0  0
 10 11  1  0  0  0  0
 11 12  2  0  0  0  0
 12 13  1  0  0  0  0
 13 14  1  0  0  0  0
 15 14  1  0  0  0  0
 14 31  1  0  0  0  0
 15 16  1  0  0  0  0
 28 15  1  0  0  0  0
 16 17  2  0  0  0  0
 17 18  1  0  0  0  0
 18 19  1  0  0  0  0
 18 20  1  0  0  0  0
 20 21  1  0  0  0  0
 21 22  1  0  0  0  0
 23 22  2  0  0  0  0
 22 27  1  0  0  0  0
 24 23  1  0  0  0  0
 25 24  2  0  0  0  0
 26 25  1  0  0  0  0
 27 26  2  0  0  0  0
 28 29  1  0  0  0  0
 30 28  1  0  0  0  0
 31 30  1  0  0  0  0
 31 32  2  0  0  0  0
M  END
> <Inchi_key>
PYYDLKZPLCMFLK-AJYMUMPOSA-N

> <Source>
Mulliner

> <ID>
HT1963

> <H_MFHB>
0

> <CAS>
60325-46-4

> <Cholestasis>


> <Name>
sulprostone

> <Class>
0

$$$$