
  -INDIGO-08031710012D

 17 16  0  0  0  0  0  0  0  0999 V2000
   -1.2158   -5.2434    0.0000 C   0  0  0  0  0  0  0  0  0  0  0  0
    0.0833   -4.4934    0.0000 C   0  0  0  0  0  0  0  0  0  0  0  0
    1.3823   -5.2434    0.0000 C   0  0  0  0  0  0  0  0  0  0  0  0
    2.6814   -4.4934    0.0000 C   0  0  0  0  0  0  0  0  0  0  0  0
    3.9804   -5.2434    0.0000 C   0  0  0  0  0  0  0  0  0  0  0  0
    5.2795   -4.4934    0.0000 C   0  0  0  0  0  0  0  0  0  0  0  0
    6.5785   -5.2434    0.0000 C   0  0  0  0  0  0  0  0  0  0  0  0
    7.8773   -4.4934    0.0000 C   0  0  0  0  0  0  0  0  0  0  0  0
    9.1767   -5.2434    0.0000 C   0  0  0  0  0  0  0  0  0  0  0  0
   10.4754   -4.4934    0.0000 C   0  0  0  0  0  0  0  0  0  0  0  0
   11.7745   -5.2434    0.0000 C   0  0  0  0  0  0  0  0  0  0  0  0
   13.0735   -4.4934    0.0000 C   0  0  0  0  0  0  0  0  0  0  0  0
   14.3726   -5.2434    0.0000 C   0  0  0  0  0  0  0  0  0  0  0  0
   15.6716   -4.4934    0.0000 C   0  0  0  0  0  0  0  0  0  0  0  0
   16.9707   -5.2434    0.0000 C   0  0  0  0  0  0  0  0  0  0  0  0
   18.2697   -4.4934    0.0000 C   0  0  0  0  0  0  0  0  0  0  0  0
   19.5688   -5.2434    0.0000 O   0  0  0  0  0  0  0  0  0  0  0  0
  1  2  1  0  0  0  0
  2  3  1  0  0  0  0
  3  4  1  0  0  0  0
  4  5  1  0  0  0  0
  5  6  1  0  0  0  0
  6  7  1  0  0  0  0
  7  8  1  0  0  0  0
  8  9  1  0  0  0  0
  9 10  1  0  0  0  0
 10 11  1  0  0  0  0
 11 12  1  0  0  0  0
 12 13  1  0  0  0  0
 13 14  1  0  0  0  0
 14 15  1  0  0  0  0
 15 16  1  0  0  0  0
 16 17  1  0  0  0  0
M  END
> <Inchi_key>
BXWNKGSJHAJOGX-UHFFFAOYSA-N

> <Source>
Mulliner

> <ID>
HT3059

> <H_MFHB>
0

> <CAS>


> <Cholestasis>


> <Name>


> <Class>
0

$$$$