

  -INDIGO-08031710012D

 26 28  0  0  0  0  0  0  0  0999 V2000
   11.4047   -7.0366    0.0000 C   0  0  0  0  0  0  0  0  0  0  0  0
   10.1058   -7.7866    0.0000 C   0  0  0  0  0  0  0  0  0  0  0  0
   10.1058   -9.2866    0.0000 C   0  0  0  0  0  0  0  0  0  0  0  0
    8.8066   -7.0366    0.0000 N   0  0  0  0  0  0  0  0  0  0  0  0
    8.8066   -5.5367    0.0000 C   0  0  0  0  0  0  0  0  0  0  0  0
    7.5077   -4.7867    0.0000 C   0  0  0  0  0  0  0  0  0  0  0  0
    6.2085   -5.5367    0.0000 C   0  0  0  0  0  0  0  0  0  0  0  0
    6.2085   -7.0366    0.0000 C   0  0  0  0  0  0  0  0  0  0  0  0
    7.5077   -7.7866    0.0000 C   0  0  0  0  0  0  0  0  0  0  0  0
    4.9096   -4.7867    0.0000 N   0  0  0  0  0  0  0  0  0  0  0  0
    3.6105   -5.5367    0.0000 C   0  0  0  0  0  0  0  0  0  0  0  0
    3.6105   -7.0366    0.0000 O   0  0  0  0  0  0  0  0  0  0  0  0
    2.3113   -4.7867    0.0000 C   0  0  0  0  0  0  0  0  0  0  0  0
    1.0124   -5.5367    0.0000 C   0  0  0  0  0  0  0  0  0  0  0  0
    1.0124   -7.0366    0.0000 C   0  0  0  0  0  0  0  0  0  0  0  0
   -0.2866   -7.7866    0.0000 C   0  0  0  0  0  0  0  0  0  0  0  0
   -1.5857   -7.0366    0.0000 C   0  0  0  0  0  0  0  0  0  0  0  0
   -1.5857   -5.5367    0.0000 C   0  0  0  0  0  0  0  0  0  0  0  0
   -0.2866   -4.7867    0.0000 C   0  0  0  0  0  0  0  0  0  0  0  0
    4.9096   -3.2865    0.0000 C   0  0  0  0  0  0  0  0  0  0  0  0
    3.6105   -2.5365    0.0000 C   0  0  0  0  0  0  0  0  0  0  0  0
    3.6105   -1.0366    0.0000 C   0  0  0  0  0  0  0  0  0  0  0  0
    4.9096   -0.2866    0.0000 C   0  0  0  0  0  0  0  0  0  0  0  0
    4.9096    1.2134    0.0000 Cl  0  0  0  0  0  0  0  0  0  0  0  0
    6.2085   -1.0366    0.0000 C   0  0  0  0  0  0  0  0  0  0  0  0
    6.2085   -2.5365    0.0000 C   0  0  0  0  0  0  0  0  0  0  0  0
  1  2  1  0  0  0  0
  2  3  1  0  0  0  0
  2  4  1  0  0  0  0
  5  4  1  0  0  0  0
  4  9  1  0  0  0  0
  6  5  1  0  0  0  0
  7  6  1  0  0  0  0
  8  7  1  0  0  0  0
  7 10  1  0  0  0  0
  9  8  1  0  0  0  0
 10 11  1  0  0  0  0
 10 20  1  0  0  0  0
 11 12  2  0  0  0  0
 11 13  1  0  0  0  0
 13 14  1  0  0  0  0
 15 14  2  0  0  0  0
 14 19  1  0  0  0  0
 16 15  1  0  0  0  0
 17 16  2  0  0  0  0
 18 17  1  0  0  0  0
 19 18  2  0  0  0  0
 21 20  2  0  0  0  0
 20 26  1  0  0  0  0
 22 21  1  0  0  0  0
 23 22  2  0  0  0  0
 23 24  1  0  0  0  0
 25 23  1  0  0  0  0
 26 25  2  0  0  0  0
M  END
> <Inchi_key>
XHOJAWVAWFHGHL-UHFFFAOYSA-N

> <Source>
Mulliner

> <ID>
HT3683

> <H_MFHB>
0

> <CAS>


> <Cholestasis>


> <Name>


> <Class>
0


$$$$