

  -INDIGO-08031710012D

 22 23  0  0  0  0  0  0  0  0999 V2000
   -0.7697    3.6226    0.0000 O   0  0  0  0  0  0  0  0  0  0  0  0
    0.5294    2.8726    0.0000 C   0  0  0  0  0  0  0  0  0  0  0  0
    0.5294    1.3726    0.0000 O   0  0  0  0  0  0  0  0  0  0  0  0
    1.8285    3.6226    0.0000 C   0  0  0  0  0  0  0  0  0  0  0  0
    3.1274    2.8726    0.0000 C   0  0  0  0  0  0  0  0  0  0  0  0
    4.4265    3.6226    0.0000 C   0  0  0  0  0  0  0  0  0  0  0  0
    4.4265    5.1226    0.0000 C   0  0  0  0  0  0  0  0  0  0  0  0
    3.1274    5.8726    0.0000 C   0  0  0  0  0  0  0  0  0  0  0  0
    1.8285    5.1226    0.0000 C   0  0  0  0  0  0  0  0  0  0  0  0
    0.5294    5.8726    0.0000 O   0  0  0  0  0  0  0  0  0  0  0  0
    5.7256    2.8726    0.0000 N   0  0  0  0  0  0  0  0  0  0  0  0
    7.0244    3.6226    0.0000 N   0  0  0  0  0  0  0  0  0  0  0  0
    8.3235    2.8726    0.0000 C   0  0  0  0  0  0  0  0  0  0  0  0
    8.3235    1.3726    0.0000 C   0  0  0  0  0  0  0  0  0  0  0  0
    9.6226    0.6226    0.0000 C   0  0  0  0  0  0  0  0  0  0  0  0
   10.9215    1.3726    0.0000 C   0  0  0  0  0  0  0  0  0  0  0  0
   12.2206    0.6226    0.0000 O   0  0  0  0  0  0  0  0  0  0  0  0
   10.9215    2.8726    0.0000 C   0  0  0  0  0  0  0  0  0  0  0  0
    9.6226    3.6226    0.0000 C   0  0  0  0  0  0  0  0  0  0  0  0
   12.2206    3.6226    0.0000 C   0  0  0  0  0  0  0  0  0  0  0  0
   12.2206    5.1226    0.0000 O   0  0  0  0  0  0  0  0  0  0  0  0
   13.5197    2.8726    0.0000 O   0  0  0  0  0  0  0  0  0  0  0  0
  1  2  1  0  0  0  0
  2  3  2  0  0  0  0
  2  4  1  0  0  0  0
  5  4  2  0  0  0  0
  4  9  1  0  0  0  0
  6  5  1  0  0  0  0
  7  6  2  0  0  0  0
  6 11  1  0  0  0  0
  8  7  1  0  0  0  0
  9  8  2  0  0  0  0
  9 10  1  0  0  0  0
 11 12  2  0  0  0  0
 12 13  1  0  0  0  0
 14 13  2  0  0  0  0
 13 19  1  0  0  0  0
 15 14  1  0  0  0  0
 16 15  2  0  0  0  0
 16 17  1  0  0  0  0
 18 16  1  0  0  0  0
 19 18  2  0  0  0  0
 18 20  1  0  0  0  0
 20 21  2  0  0  0  0
 20 22  1  0  0  0  0
M  END
> <Inchi_key>
QQBDLJCYGRGAKP-FOCLMDBBSA-N

> <Source>
Mulliner

> <ID>
HT1538

> <H_MFHB>
0

> <CAS>


> <Cholestasis>


> <Name>
olsalazine sodium;olsalazine

> <Class>
0


$$$$