
  -INDIGO-08031710012D

 22 22  0  0  0  0  0  0  0  0999 V2000
   15.2760   -2.0477    0.0000 C   0  0  0  0  0  0  0  0  0  0  0  0
   13.9769   -2.7977    0.0000 C   0  0  0  0  0  0  0  0  0  0  0  0
   12.6780   -2.0477    0.0000 C   0  0  0  0  0  0  0  0  0  0  0  0
   11.3789   -2.7977    0.0000 C   0  0  0  0  0  0  0  0  0  0  0  0
   11.3789   -4.2977    0.0000 O   0  0  0  0  0  0  0  0  0  0  0  0
   10.0798   -2.0477    0.0000 N   0  0  0  0  0  0  0  0  0  0  0  0
    8.7807   -2.7977    0.0000 C   0  0  0  0  0  0  0  0  0  0  0  0
    8.7807   -4.2977    0.0000 C   0  0  0  0  0  0  0  0  0  0  0  0
   10.0798   -5.0477    0.0000 I   0  0  0  0  0  0  0  0  0  0  0  0
    7.4818   -5.0477    0.0000 C   0  0  0  0  0  0  0  0  0  0  0  0
    6.1827   -4.2977    0.0000 C   0  0  0  0  0  0  0  0  0  0  0  0
    4.8836   -5.0477    0.0000 I   0  0  0  0  0  0  0  0  0  0  0  0
    6.1827   -2.7977    0.0000 C   0  0  0  0  0  0  0  0  0  0  0  0
    4.8836   -2.0477    0.0000 C   0  0  0  0  0  0  0  0  0  0  0  0
    3.5845   -2.7977    0.0000 C   0  0  0  0  0  0  0  0  0  0  0  0
    3.5845   -4.2977    0.0000 C   0  0  0  0  0  0  0  0  0  0  0  0
    2.2856   -5.0477    0.0000 C   0  0  0  0  0  0  0  0  0  0  0  0
    2.2856   -2.0477    0.0000 C   0  0  0  0  0  0  0  0  0  0  0  0
    0.9865   -2.7977    0.0000 O   0  0  0  0  0  0  0  0  0  0  0  0
    2.2856   -0.5477    0.0000 O   0  0  0  0  0  0  0  0  0  0  0  0
    7.4818   -2.0477    0.0000 C   0  0  0  0  0  0  0  0  0  0  0  0
    7.4818   -0.5477    0.0000 I   0  0  0  0  0  0  0  0  0  0  0  0
  1  2  1  0  0  0  0
  2  3  1  0  0  0  0
  3  4  1  0  0  0  0
  4  5  2  0  0  0  0
  4  6  1  0  0  0  0
  6  7  1  0  0  0  0
  8  7  2  0  0  0  0
  7 21  1  0  0  0  0
  8  9  1  0  0  0  0
 10  8  1  0  0  0  0
 11 10  2  0  0  0  0
 11 12  1  0  0  0  0
 13 11  1  0  0  0  0
 13 14  1  0  0  0  0
 21 13  2  0  0  0  0
 14 15  1  0  0  0  0
 15 16  1  0  0  0  0
 15 18  1  0  0  0  0
 16 17  1  0  0  0  0
 18 19  2  0  0  0  0
 18 20  1  0  0  0  0
 21 22  1  0  0  0  0
M  END
> <Inchi_key>
YMOXVLQZFAUUKI-UHFFFAOYSA-N

> <Source>
Mulliner

> <ID>
HT2148

> <H_MFHB>
0

> <CAS>
7246-21-1

> <Cholestasis>


> <Name>
tyropanoate

> <Class>
0

$$$$