
  -INDIGO-08031710012D

 15 16  0  0  0  0  0  0  0  0999 V2000
    4.5018   -0.9880    0.0000 N   0  0  0  0  0  0  0  0  0  0  0  0
    4.3684   -2.4820    0.0000 C   0  0  0  0  0  0  0  0  0  0  0  0
    3.0077   -3.1135    0.0000 C   0  0  0  0  0  0  0  0  0  0  0  0
    1.7805   -2.2508    0.0000 C   0  0  0  0  0  0  0  0  0  0  0  0
    1.7572   -0.7510    0.0000 C   0  0  0  0  0  0  0  0  0  0  0  0
    0.3234   -0.3098    0.0000 N   0  0  0  0  0  0  0  0  0  0  0  0
   -0.5391   -1.5370    0.0000 C   0  0  0  0  0  0  0  0  0  0  0  0
   -2.0284   -1.7170    0.0000 C   0  0  0  0  0  0  0  0  0  0  0  0
   -2.6169   -3.0967    0.0000 C   0  0  0  0  0  0  0  0  0  0  0  0
   -1.7163   -4.2963    0.0000 C   0  0  0  0  0  0  0  0  0  0  0  0
   -0.2273   -4.1163    0.0000 C   0  0  0  0  0  0  0  0  0  0  0  0
    0.3614   -2.7366    0.0000 C   0  0  0  0  0  0  0  0  0  0  0  0
    5.5956   -3.3447    0.0000 C   0  0  0  0  0  0  0  0  0  0  0  0
    5.4620   -4.8387    0.0000 O   0  0  0  0  0  0  0  0  0  0  0  0
    6.9561   -2.7132    0.0000 O   0  0  0  0  0  0  0  0  0  0  0  0
  1  2  1  0  0  0  0
  2  3  1  0  0  0  0
  2 13  1  0  0  0  0
  3  4  1  0  0  0  0
  5  4  2  0  0  0  0
  4 12  1  0  0  0  0
  6  5  1  0  0  0  0
  7  6  1  0  0  0  0
  8  7  1  0  0  0  0
  7 12  2  0  0  0  0
  9  8  2  0  0  0  0
 10  9  1  0  0  0  0
 11 10  2  0  0  0  0
 12 11  1  0  0  0  0
 13 14  2  0  0  0  0
 13 15  1  0  0  0  0
M  END
> <Inchi_key>
QIVBCDIJIAJPQS-UHFFFAOYSA-N

> <Source>
Mulliner , Kotsampasakou

> <ID>
EK0559;HT1252

> <H_MFHB>
0

> <CAS>


> <Cholestasis>
0

> <Name>
l-tryptophan;tryptophan

> <Class>
0

$$$$