

  -INDIGO-08031710012D

 17 17  0  0  0  0  0  0  0  0999 V2000
    7.3651   -1.8206    0.0000 C   0  0  0  0  0  0  0  0  0  0  0  0
    6.0661   -1.0706    0.0000 C   0  0  0  0  0  0  0  0  0  0  0  0
    6.0661    0.4294    0.0000 C   0  0  0  0  0  0  0  0  0  0  0  0
    4.7669    1.1794    0.0000 C   0  0  0  0  0  0  0  0  0  0  0  0
    3.4681    0.4294    0.0000 C   0  0  0  0  0  0  0  0  0  0  0  0
    3.4681   -1.0706    0.0000 C   0  0  0  0  0  0  0  0  0  0  0  0
    4.7669   -1.8206    0.0000 I   0  0  0  0  0  0  0  0  0  0  0  0
    2.1689   -1.8206    0.0000 C   0  0  0  0  0  0  0  0  0  0  0  0
    0.8699   -1.0706    0.0000 C   0  0  0  0  0  0  0  0  0  0  0  0
   -0.4291   -1.8206    0.0000 I   0  0  0  0  0  0  0  0  0  0  0  0
    0.8699    0.4294    0.0000 C   0  0  0  0  0  0  0  0  0  0  0  0
   -0.4291    1.1794    0.0000 N   0  0  0  0  0  0  0  0  0  0  0  0
    2.1689    1.1794    0.0000 C   0  0  0  0  0  0  0  0  0  0  0  0
    2.1689    2.6794    0.0000 I   0  0  0  0  0  0  0  0  0  0  0  0
    7.3651    1.1794    0.0000 C   0  0  0  0  0  0  0  0  0  0  0  0
    8.6641    0.4294    0.0000 O   0  0  0  0  0  0  0  0  0  0  0  0
    7.3651    2.6794    0.0000 O   0  0  0  0  0  0  0  0  0  0  0  0
  1  2  1  0  0  0  0
  2  3  1  0  0  0  0
  3  4  1  0  0  0  0
  3 15  1  0  0  0  0
  4  5  1  0  0  0  0
  6  5  2  0  0  0  0
  5 13  1  0  0  0  0
  6  7  1  0  0  0  0
  8  6  1  0  0  0  0
  9  8  2  0  0  0  0
  9 10  1  0  0  0  0
 11  9  1  0  0  0  0
 11 12  1  0  0  0  0
 13 11  2  0  0  0  0
 13 14  1  0  0  0  0
 15 16  2  0  0  0  0
 15 17  1  0  0  0  0
M  END
> <Inchi_key>
OIRFJRBSRORBCM-UHFFFAOYSA-N

> <Source>
Mulliner

> <ID>
HT1112

> <H_MFHB>
0

> <CAS>


> <Cholestasis>


> <Name>
iopanoic acid

> <Class>
0


$$$$