
  -INDIGO-08031710012D

 28 30  0  0  0  0  0  0  0  0999 V2000
    1.3607    2.8758    0.0000 C   0  0  0  0  0  0  0  0  0  0  0  0
    2.6596    2.1256    0.0000 C   0  0  0  0  0  0  0  0  0  0  0  0
    2.6596    0.6257    0.0000 C   0  0  0  0  0  0  0  0  0  0  0  0
    3.9587   -0.1243    0.0000 C   0  0  0  0  0  0  0  0  0  0  0  0
    5.2576    0.6257    0.0000 C   0  0  0  0  0  0  0  0  0  0  0  0
    5.2576    2.1256    0.0000 C   0  0  0  0  0  0  0  0  0  0  0  0
    3.9587    2.8758    0.0000 C   0  0  0  0  0  0  0  0  0  0  0  0
    3.9587    4.3757    0.0000 F   0  0  0  0  0  0  0  0  0  0  0  0
    3.9587   -1.6243    0.0000 C   0  0  0  0  0  0  0  0  0  0  0  0
    5.2576   -2.3743    0.0000 C   0  0  0  0  0  0  0  0  0  0  0  0
    6.5567   -1.6243    0.0000 C   0  0  0  0  0  0  0  0  0  0  0  0
    7.8558   -2.3743    0.0000 C   0  0  0  0  0  0  0  0  0  0  0  0
    9.1548   -1.6243    0.0000 C   0  0  0  0  0  0  0  0  0  0  0  0
    9.1548   -0.1243    0.0000 C   0  0  0  0  0  0  0  0  0  0  0  0
   10.4539    0.6257    0.0000 C   0  0  0  0  0  0  0  0  0  0  0  0
   10.4539    2.1256    0.0000 O   0  0  0  0  0  0  0  0  0  0  0  0
   11.7530   -0.1243    0.0000 C   0  0  0  0  0  0  0  0  0  0  0  0
   11.7530   -1.6243    0.0000 C   0  0  0  0  0  0  0  0  0  0  0  0
   13.0519   -2.3743    0.0000 O   0  0  0  0  0  0  0  0  0  0  0  0
   10.4539   -2.3743    0.0000 O   0  0  0  0  0  0  0  0  0  0  0  0
    5.2576   -3.8743    0.0000 C   0  0  0  0  0  0  0  0  0  0  0  0
    6.7576   -3.8743    0.0000 C   0  0  0  0  0  0  0  0  0  0  0  0
    6.0076   -5.1734    0.0000 C   0  0  0  0  0  0  0  0  0  0  0  0
    3.9587   -4.6244    0.0000 C   0  0  0  0  0  0  0  0  0  0  0  0
    2.6596   -3.8743    0.0000 C   0  0  0  0  0  0  0  0  0  0  0  0
    1.1596   -3.8743    0.0000 C   0  0  0  0  0  0  0  0  0  0  0  0
    1.9096   -5.1734    0.0000 C   0  0  0  0  0  0  0  0  0  0  0  0
    2.6596   -2.3743    0.0000 C   0  0  0  0  0  0  0  0  0  0  0  0
  1  2  1  0  0  0  0
  3  2  2  0  0  0  0
  2  7  1  0  0  0  0
  4  3  1  0  0  0  0
  5  4  2  0  0  0  0
  4  9  1  0  0  0  0
  6  5  1  0  0  0  0
  7  6  2  0  0  0  0
  7  8  1  0  0  0  0
 10  9  2  0  0  0  0
  9 28  1  0  0  0  0
 10 11  1  0  0  0  0
 21 10  1  0  0  0  0
 11 12  2  0  0  0  0
 12 13  1  0  0  0  0
 14 13  1  0  0  0  0
 13 20  1  0  0  0  0
 15 14  1  0  0  0  0
 15 16  1  0  0  0  0
 17 15  1  0  0  0  0
 18 17  1  0  0  0  0
 18 19  2  0  0  0  0
 20 18  1  0  0  0  0
 21 22  1  0  0  0  0
 21 23  1  0  0  0  0
 24 21  1  0  0  0  0
 25 24  1  0  0  0  0
 25 26  1  0  0  0  0
 25 27  1  0  0  0  0
 28 25  1  0  0  0  0
M  END
> <Inchi_key>
VDSBXXDKCUBMQC-BQYQJAHWSA-N

> <Source>
Mulliner

> <ID>
HT0586

> <H_MFHB>
0

> <CAS>
135910-20-2

> <Cholestasis>


> <Name>
dalvastatin

> <Class>
0

$$$$