
  -INDIGO-08031710012D

 13 15  0  0  0  0  0  0  0  0999 V2000
    7.0578   -1.9408    0.0000 C   0  0  0  0  0  0  0  0  0  0  0  0
    5.7687   -1.1738    0.0000 C   0  0  0  0  0  0  0  0  0  0  0  0
    4.3905   -1.7659    0.0000 O   0  0  0  0  0  0  0  0  0  0  0  0
    3.4015   -0.6382    0.0000 C   0  0  0  0  0  0  0  0  0  0  0  0
    4.1685    0.6509    0.0000 C   0  0  0  0  0  0  0  0  0  0  0  0
    5.6315    0.3199    0.0000 S   0  0  0  0  0  0  0  0  0  0  0  0
    3.0910    0.7126    0.0000 C   0  0  0  0  0  0  0  0  0  0  0  0
    2.1250   -0.3966    0.0000 N   0  0  0  0  0  0  0  0  0  0  0  0
    0.4937   -0.4190    0.0000 C   0  0  0  0  0  0  0  0  0  0  0  0
    0.8726   -1.7273    0.0000 C   0  0  0  0  0  0  0  0  0  0  0  0
    2.4380   -1.7177    0.0000 C   0  0  0  0  0  0  0  0  0  0  0  0
    3.1560   -3.1486    0.0000 C   0  0  0  0  0  0  0  0  0  0  0  0
    3.1123   -1.9841    0.0000 C   0  0  0  0  0  0  0  0  0  0  0  0
  1  2  1  0  0  0  0
  3  2  1  0  0  0  0
  2  6  1  0  0  0  0
  4  3  1  0  0  0  0
  5  4  1  0  0  0  0
  7  4  1  0  0  0  0
  4 11  1  0  0  0  0
  6  5  1  0  0  0  0
  8  7  1  0  0  0  0
  8  9  1  0  0  0  0
 13  8  1  0  0  0  0
  9 10  1  0  0  0  0
 10 11  1  0  0  0  0
 11 12  1  0  0  0  0
 12 13  1  0  0  0  0
M  END
> <Inchi_key>
WUTYZMFRCNBCHQ-UHFFFAOYSA-N

> <Source>
Mulliner

> <ID>
HT0440

> <H_MFHB>
0

> <CAS>


> <Cholestasis>


> <Name>
cevimeline hydrochloride;cevimeline

> <Class>
0

$$$$