

  -INDIGO-08031710012D

 44 47  0  0  0  0  0  0  0  0999 V2000
   -2.8393   10.5966    0.0000 C   0  0  0  0  0  0  0  0  0  0  0  0
   -1.5404   11.3466    0.0000 C   0  0  0  0  0  0  0  0  0  0  0  0
   -0.2412   12.0965    0.0000 C   0  0  0  0  0  0  0  0  0  0  0  0
   -2.2904   12.6455    0.0000 C   0  0  0  0  0  0  0  0  0  0  0  0
   -0.7903   10.0474    0.0000 S   0  0  0  0  0  0  0  0  0  0  0  0
    0.5088   10.7974    0.0000 O   0  0  0  0  0  0  0  0  0  0  0  0
   -2.0892    9.2975    0.0000 O   0  0  0  0  0  0  0  0  0  0  0  0
   -0.0403    8.7483    0.0000 C   0  0  0  0  0  0  0  0  0  0  0  0
   -0.7903    7.4494    0.0000 C   0  0  0  0  0  0  0  0  0  0  0  0
   -2.2904    7.4494    0.0000 C   0  0  0  0  0  0  0  0  0  0  0  0
   -3.0402    6.1504    0.0000 C   0  0  0  0  0  0  0  0  0  0  0  0
   -4.5403    6.1504    0.0000 C   0  0  0  0  0  0  0  0  0  0  0  0
   -5.2903    4.8513    0.0000 C   0  0  0  0  0  0  0  0  0  0  0  0
   -4.5403    3.5524    0.0000 C   0  0  0  0  0  0  0  0  0  0  0  0
   -3.0402    3.5524    0.0000 C   0  0  0  0  0  0  0  0  0  0  0  0
   -2.2904    4.8513    0.0000 C   0  0  0  0  0  0  0  0  0  0  0  0
   -0.0403    6.1504    0.0000 C   0  0  0  0  0  0  0  0  0  0  0  0
   -0.7903    4.8513    0.0000 O   0  0  0  0  0  0  0  0  0  0  0  0
    1.4598    6.1504    0.0000 N   0  0  0  0  0  0  0  0  0  0  0  0
    2.2098    4.8513    0.0000 C   0  0  0  0  0  0  0  0  0  0  0  0
    1.4598    3.5524    0.0000 C   0  0  0  0  0  0  0  0  0  0  0  0
    2.2098    2.2532    0.0000 C   0  0  0  0  0  0  0  0  0  0  0  0
    1.5995    0.8828    0.0000 C   0  0  0  0  0  0  0  0  0  0  0  0
    2.7143   -0.1208    0.0000 N   0  0  0  0  0  0  0  0  0  0  0  0
    4.0135    0.6292    0.0000 C   0  0  0  0  0  0  0  0  0  0  0  0
    3.7016    2.0964    0.0000 N   0  0  0  0  0  0  0  0  0  0  0  0
    3.7096    4.8513    0.0000 C   0  0  0  0  0  0  0  0  0  0  0  0
    4.4596    3.5524    0.0000 O   0  0  0  0  0  0  0  0  0  0  0  0
    4.4596    6.1504    0.0000 N   0  0  0  0  0  0  0  0  0  0  0  0
    5.9597    6.1504    0.0000 C   0  0  0  0  0  0  0  0  0  0  0  0
    6.7097    4.8513    0.0000 C   0  0  0  0  0  0  0  0  0  0  0  0
    8.2098    4.8513    0.0000 C   0  0  0  0  0  0  0  0  0  0  0  0
    8.9596    3.5524    0.0000 C   0  0  0  0  0  0  0  0  0  0  0  0
   10.4597    3.5524    0.0000 C   0  0  0  0  0  0  0  0  0  0  0  0
   11.2097    4.8513    0.0000 C   0  0  0  0  0  0  0  0  0  0  0  0
   10.4597    6.1504    0.0000 C   0  0  0  0  0  0  0  0  0  0  0  0
    8.9596    6.1504    0.0000 C   0  0  0  0  0  0  0  0  0  0  0  0
    6.7097    7.4494    0.0000 C   0  0  0  0  0  0  0  0  0  0  0  0
    8.2098    7.4494    0.0000 O   0  0  0  0  0  0  0  0  0  0  0  0
    5.9597    8.7483    0.0000 C   0  0  0  0  0  0  0  0  0  0  0  0
    4.4596    8.7483    0.0000 O   0  0  0  0  0  0  0  0  0  0  0  0
    6.7097   10.0474    0.0000 C   0  0  0  0  0  0  0  0  0  0  0  0
    8.0089   10.7974    0.0000 C   0  0  0  0  0  0  0  0  0  0  0  0
    6.7097   11.5474    0.0000 C   0  0  0  0  0  0  0  0  0  0  0  0
  1  2  1  0  0  0  0
  2  3  1  0  0  0  0
  2  4  1  0  0  0  0
  2  5  1  0  0  0  0
  5  6  2  0  0  0  0
  5  7  2  0  0  0  0
  5  8  1  0  0  0  0
  8  9  1  0  0  0  0
  9 10  1  0  0  0  0
  9 17  1  0  0  0  0
 10 11  1  0  0  0  0
 12 11  2  0  0  0  0
 11 16  1  0  0  0  0
 13 12  1  0  0  0  0
 14 13  2  0  0  0  0
 15 14  1  0  0  0  0
 16 15  2  0  0  0  0
 17 18  2  0  0  0  0
 17 19  1  0  0  0  0
 19 20  1  0  0  0  0
 20 21  1  0  0  0  0
 20 27  1  0  0  0  0
 21 22  1  0  0  0  0
 23 22  2  0  0  0  0
 22 26  1  0  0  0  0
 24 23  1  0  0  0  0
 25 24  1  0  0  0  0
 26 25  2  0  0  0  0
 27 28  2  0  0  0  0
 27 29  1  0  0  0  0
 29 30  1  0  0  0  0
 30 31  1  0  0  0  0
 30 38  1  0  0  0  0
 31 32  1  0  0  0  0
 33 32  1  0  0  0  0
 32 37  1  0  0  0  0
 34 33  1  0  0  0  0
 35 34  1  0  0  0  0
 36 35  1  0  0  0  0
 37 36  1  0  0  0  0
 38 39  1  0  0  0  0
 38 40  1  0  0  0  0
 40 41  1  0  0  0  0
 40 42  1  0  0  0  0
 43 42  1  0  0  0  0
 42 44  1  0  0  0  0
 44 43  1  0  0  0  0
M  END
> <Inchi_key>
UXIGZRQVLGFTOU-UHFFFAOYSA-N

> <Source>
Mulliner

> <ID>
HT1809

> <H_MFHB>
0

> <CAS>


> <Cholestasis>


> <Name>
remikiren

> <Class>
0


$$$$