

  -INDIGO-08031710012D

 22 24  0  0  0  0  0  0  0  0999 V2000
    0.0000    0.0000    0.0000 Cl  0  0  0  0  0  0  0  0  0  0  0  0
    1.5000    0.0000    0.0000 C   0  0  0  0  0  0  0  0  0  0  0  0
    2.2499    1.2990    0.0000 C   0  0  0  0  0  0  0  0  0  0  0  0
    3.7499    1.2990    0.0000 C   0  0  0  0  0  0  0  0  0  0  0  0
    4.5001    0.0000    0.0000 C   0  0  0  0  0  0  0  0  0  0  0  0
    6.0001    0.0000    0.0000 C   0  0  0  0  0  0  0  0  0  0  0  0
    6.7500    1.2990    0.0000 C   0  0  0  0  0  0  0  0  0  0  0  0
    8.2500    1.2990    0.0000 C   0  0  0  0  0  0  0  0  0  0  0  0
    8.9999    0.0000    0.0000 C   0  0  0  0  0  0  0  0  0  0  0  0
   10.4999    0.0000    0.0000 N   0  0  0  0  0  0  0  0  0  0  0  0
   11.3818    1.2135    0.0000 C   0  0  0  0  0  0  0  0  0  0  0  0
   12.8083    0.7500    0.0000 C   0  0  0  0  0  0  0  0  0  0  0  0
   12.8083   -0.7500    0.0000 C   0  0  0  0  0  0  0  0  0  0  0  0
   11.3818   -1.2135    0.0000 C   0  0  0  0  0  0  0  0  0  0  0  0
    6.0001    2.5981    0.0000 C   0  0  0  0  0  0  0  0  0  0  0  0
    6.7500    3.8971    0.0000 C   0  0  0  0  0  0  0  0  0  0  0  0
    6.0001    5.1962    0.0000 C   0  0  0  0  0  0  0  0  0  0  0  0
    4.5001    5.1962    0.0000 C   0  0  0  0  0  0  0  0  0  0  0  0
    3.7499    3.8971    0.0000 C   0  0  0  0  0  0  0  0  0  0  0  0
    4.5001    2.5981    0.0000 C   0  0  0  0  0  0  0  0  0  0  0  0
    3.7499   -1.2990    0.0000 C   0  0  0  0  0  0  0  0  0  0  0  0
    2.2499   -1.2990    0.0000 C   0  0  0  0  0  0  0  0  0  0  0  0
  1  2  1  0  0  0  0
  3  2  2  0  0  0  0
  2 22  1  0  0  0  0
  4  3  1  0  0  0  0
  5  4  2  0  0  0  0
  5  6  1  0  0  0  0
 21  5  1  0  0  0  0
  6  7  1  0  0  0  0
  7  8  2  0  0  0  0
  7 15  1  0  0  0  0
  8  9  1  0  0  0  0
  9 10  1  0  0  0  0
 11 10  1  0  0  0  0
 10 14  1  0  0  0  0
 12 11  1  0  0  0  0
 13 12  1  0  0  0  0
 14 13  1  0  0  0  0
 16 15  2  0  0  0  0
 15 20  1  0  0  0  0
 17 16  1  0  0  0  0
 18 17  2  0  0  0  0
 19 18  1  0  0  0  0
 20 19  2  0  0  0  0
 22 21  2  0  0  0  0
M  END
> <Inchi_key>
WDYYVNNRTDZKAZ-XDHOZWIPSA-N

> <Source>
Mulliner

> <ID>
HT3418

> <H_MFHB>
0

> <CAS>


> <Cholestasis>


> <Name>


> <Class>
0


$$$$