
  -INDIGO-08031710012D

 43 49  0  0  0  0  0  0  0  0999 V2000
    0.0192   -0.0432    0.0000 C   0  0  0  0  0  0  0  0  0  0  0  0
    1.5191   -0.0354    0.0000 C   0  0  0  0  0  0  0  0  0  0  0  0
    2.2626    1.2676    0.0000 C   0  0  0  0  0  0  0  0  0  0  0  0
    3.5655    0.5242    0.0000 C   0  0  0  0  0  0  0  0  0  0  0  0
    0.9597    2.0108    0.0000 C   0  0  0  0  0  0  0  0  0  0  0  0
    3.0059    2.5704    0.0000 C   0  0  0  0  0  0  0  0  0  0  0  0
    4.5058    2.5782    0.0000 N   0  0  0  0  0  0  0  0  0  0  0  0
    5.5153    1.4686    0.0000 C   0  0  0  0  0  0  0  0  0  0  0  0
    5.2108   -0.0003    0.0000 O   0  0  0  0  0  0  0  0  0  0  0  0
    6.8825    2.0857    0.0000 C   0  0  0  0  0  0  0  0  0  0  0  0
    8.3824    2.1000    0.0000 N   0  0  0  0  0  0  0  0  0  0  0  0
    9.1198    3.4061    0.0000 C   0  0  0  0  0  0  0  0  0  0  0  0
    8.3576    4.6980    0.0000 O   0  0  0  0  0  0  0  0  0  0  0  0
   10.6200    3.4204    0.0000 C   0  0  0  0  0  0  0  0  0  0  0  0
   11.3574    4.7265    0.0000 C   0  0  0  0  0  0  0  0  0  0  0  0
   12.8811    4.7171    0.0000 C   0  0  0  0  0  0  0  0  0  0  0  0
   13.6106    3.4487    0.0000 C   0  0  0  0  0  0  0  0  0  0  0  0
   15.0779    3.4498    0.0000 C   0  0  0  0  0  0  0  0  0  0  0  0
   15.8108    4.7189    0.0000 C   0  0  0  0  0  0  0  0  0  0  0  0
   17.2794    5.0108    0.0000 C   0  0  0  0  0  0  0  0  0  0  0  0
   17.2681    6.8768    0.0000 N   0  0  0  0  0  0  0  0  0  0  0  0
   15.8087    7.2595    0.0000 C   0  0  0  0  0  0  0  0  0  0  0  0
   15.0689    8.5321    0.0000 C   0  0  0  0  0  0  0  0  0  0  0  0
   13.5995    8.5284    0.0000 C   0  0  0  0  0  0  0  0  0  0  0  0
   12.8761    7.2575    0.0000 C   0  0  0  0  0  0  0  0  0  0  0  0
   13.6061    5.9903    0.0000 C   0  0  0  0  0  0  0  0  0  0  0  0
   15.0734    5.9889    0.0000 C   0  0  0  0  0  0  0  0  0  0  0  0
   12.8821    2.1428    0.0000 N   0  0  0  0  0  0  0  0  0  0  0  0
   13.6477    0.8529    0.0000 C   0  0  0  0  0  0  0  0  0  0  0  0
   11.3822    2.1285    0.0000 C   0  0  0  0  0  0  0  0  0  0  0  0
    6.7178    3.5768    0.0000 O   0  0  0  0  0  0  0  0  0  0  0  0
    5.2490    3.8810    0.0000 C   0  0  0  0  0  0  0  0  0  0  0  0
    6.1247    5.0990    0.0000 O   0  0  0  0  0  0  0  0  0  0  0  0
    4.4926    5.1761    0.0000 C   0  0  0  0  0  0  0  0  0  0  0  0
    4.9485    6.6051    0.0000 C   0  0  0  0  0  0  0  0  0  0  0  0
    3.7307    7.4805    0.0000 C   0  0  0  0  0  0  0  0  0  0  0  0
    2.5215    6.5926    0.0000 C   0  0  0  0  0  0  0  0  0  0  0  0
    2.9924    5.1684    0.0000 N   0  0  0  0  0  0  0  0  0  0  0  0
    2.2492    3.8656    0.0000 C   0  0  0  0  0  0  0  0  0  0  0  0
    0.7493    3.8580    0.0000 O   0  0  0  0  0  0  0  0  0  0  0  0
    7.5875    0.7618    0.0000 C   0  0  0  0  0  0  0  0  0  0  0  0
    6.7937   -0.5108    0.0000 C   0  0  0  0  0  0  0  0  0  0  0  0
    9.0869    0.7107    0.0000 C   0  0  0  0  0  0  0  0  0  0  0  0
  1  2  1  0  0  0  0
  2  3  1  0  0  0  0
  3  4  1  0  0  0  0
  3  5  1  0  0  0  0
  3  6  1  0  0  0  0
  7  6  1  0  0  0  0
  6 39  1  0  0  0  0
  8  7  1  0  0  0  0
  7 32  1  0  0  0  0
  8  9  2  0  0  0  0
 10  8  1  0  0  0  0
 10 11  1  0  0  0  0
 31 10  1  0  0  0  0
 10 41  1  0  0  0  0
 11 12  1  0  0  0  0
 12 13  2  0  0  0  0
 12 14  1  0  0  0  0
 15 14  1  0  0  0  0
 14 30  1  0  0  0  0
 16 15  1  0  0  0  0
 16 17  1  0  0  0  0
 26 16  1  0  0  0  0
 17 18  1  0  0  0  0
 28 17  1  0  0  0  0
 18 19  1  0  0  0  0
 20 19  2  0  0  0  0
 19 27  1  0  0  0  0
 21 20  1  0  0  0  0
 22 21  1  0  0  0  0
 23 22  1  0  0  0  0
 22 27  2  0  0  0  0
 24 23  2  0  0  0  0
 25 24  1  0  0  0  0
 26 25  2  0  0  0  0
 27 26  1  0  0  0  0
 28 29  1  0  0  0  0
 30 28  1  0  0  0  0
 32 31  1  0  0  0  0
 32 33  1  0  0  0  0
 34 32  1  0  0  0  0
 35 34  1  0  0  0  0
 34 38  1  0  0  0  0
 36 35  1  0  0  0  0
 37 36  1  0  0  0  0
 38 37  1  0  0  0  0
 39 38  1  0  0  0  0
 39 40  2  0  0  0  0
 41 42  1  0  0  0  0
 41 43  1  0  0  0  0
M  END
> <Inchi_key>
YLXBZBPHTNJZQE-UHFFFAOYSA-N

> <Source>
Mulliner

> <ID>
HT0776

> <H_MFHB>
0

> <CAS>


> <Cholestasis>


> <Name>
ergoloid mesylates

> <Class>
0

$$$$