
  -INDIGO-08031710012D

 21 22  0  0  0  0  0  0  0  0999 V2000
   18.4287    1.8665    0.0000 C   0  0  0  0  0  0  0  0  0  0  0  0
   17.1297    2.6165    0.0000 C   0  0  0  0  0  0  0  0  0  0  0  0
   15.8307    1.8665    0.0000 C   0  0  0  0  0  0  0  0  0  0  0  0
   14.5317    2.6165    0.0000 C   0  0  0  0  0  0  0  0  0  0  0  0
   13.2327    1.8665    0.0000 O   0  0  0  0  0  0  0  0  0  0  0  0
   11.9334    2.6165    0.0000 C   0  0  0  0  0  0  0  0  0  0  0  0
   10.6344    1.8665    0.0000 C   0  0  0  0  0  0  0  0  0  0  0  0
    9.3355    2.6165    0.0000 C   0  0  0  0  0  0  0  0  0  0  0  0
    9.3355    4.1165    0.0000 C   0  0  0  0  0  0  0  0  0  0  0  0
   10.6344    4.8665    0.0000 C   0  0  0  0  0  0  0  0  0  0  0  0
   11.9334    4.1165    0.0000 C   0  0  0  0  0  0  0  0  0  0  0  0
    8.0365    4.8665    0.0000 C   0  0  0  0  0  0  0  0  0  0  0  0
    8.0365    6.3665    0.0000 O   0  0  0  0  0  0  0  0  0  0  0  0
    6.7375    4.1165    0.0000 C   0  0  0  0  0  0  0  0  0  0  0  0
    5.4382    4.8665    0.0000 C   0  0  0  0  0  0  0  0  0  0  0  0
    4.1392    4.1165    0.0000 N   0  0  0  0  0  0  0  0  0  0  0  0
    2.8402    4.8665    0.0000 C   0  0  0  0  0  0  0  0  0  0  0  0
    1.5412    4.1165    0.0000 C   0  0  0  0  0  0  0  0  0  0  0  0
    1.5412    2.6165    0.0000 C   0  0  0  0  0  0  0  0  0  0  0  0
    2.8402    1.8665    0.0000 C   0  0  0  0  0  0  0  0  0  0  0  0
    4.1392    2.6165    0.0000 C   0  0  0  0  0  0  0  0  0  0  0  0
  1  2  1  0  0  0  0
  2  3  1  0  0  0  0
  3  4  1  0  0  0  0
  4  5  1  0  0  0  0
  5  6  1  0  0  0  0
  7  6  2  0  0  0  0
  6 11  1  0  0  0  0
  8  7  1  0  0  0  0
  9  8  2  0  0  0  0
 10  9  1  0  0  0  0
  9 12  1  0  0  0  0
 11 10  2  0  0  0  0
 12 13  2  0  0  0  0
 12 14  1  0  0  0  0
 14 15  1  0  0  0  0
 15 16  1  0  0  0  0
 17 16  1  0  0  0  0
 16 21  1  0  0  0  0
 18 17  1  0  0  0  0
 19 18  1  0  0  0  0
 20 19  1  0  0  0  0
 21 20  1  0  0  0  0
M  END
> <Inchi_key>
BZEWSEKUUPWQDQ-UHFFFAOYSA-N

> <Source>
Mulliner

> <ID>
HT0734

> <H_MFHB>
0

> <CAS>


> <Cholestasis>


> <Name>
dyclonine

> <Class>
0

$$$$