

  -INDIGO-08031710012D

 14 14  0  0  0  0  0  0  0  0999 V2000
   12.5593    3.6867    0.0000 C   0  0  0  0  0  0  0  0  0  0  0  0
   11.2602    4.4367    0.0000 C   0  0  0  0  0  0  0  0  0  0  0  0
    9.9613    3.6867    0.0000 C   0  0  0  0  0  0  0  0  0  0  0  0
    8.6622    4.4367    0.0000 C   0  0  0  0  0  0  0  0  0  0  0  0
    7.3631    3.6867    0.0000 C   0  0  0  0  0  0  0  0  0  0  0  0
    6.0641    4.4367    0.0000 C   0  0  0  0  0  0  0  0  0  0  0  0
    4.7650    3.6867    0.0000 C   0  0  0  0  0  0  0  0  0  0  0  0
    4.7650    2.1867    0.0000 C   0  0  0  0  0  0  0  0  0  0  0  0
    3.4659    1.4367    0.0000 C   0  0  0  0  0  0  0  0  0  0  0  0
    2.1670    2.1867    0.0000 C   0  0  0  0  0  0  0  0  0  0  0  0
    0.8679    1.4367    0.0000 O   0  0  0  0  0  0  0  0  0  0  0  0
    2.1670    3.6867    0.0000 C   0  0  0  0  0  0  0  0  0  0  0  0
    3.4659    4.4367    0.0000 C   0  0  0  0  0  0  0  0  0  0  0  0
    3.4659    5.9367    0.0000 O   0  0  0  0  0  0  0  0  0  0  0  0
  1  2  1  0  0  0  0
  2  3  1  0  0  0  0
  3  4  1  0  0  0  0
  4  5  1  0  0  0  0
  5  6  1  0  0  0  0
  6  7  1  0  0  0  0
  8  7  2  0  0  0  0
  7 13  1  0  0  0  0
  9  8  1  0  0  0  0
 10  9  2  0  0  0  0
 10 11  1  0  0  0  0
 12 10  1  0  0  0  0
 13 12  2  0  0  0  0
 13 14  1  0  0  0  0
M  END
> <Inchi_key>
WFJIVOKAWHGMBH-UHFFFAOYSA-N

> <Source>
Mulliner

> <ID>
HT2830

> <H_MFHB>
0

> <CAS>


> <Cholestasis>


> <Name>


> <Class>
0


$$$$