

  -INDIGO-08031710012D

 28 31  0  0  0  0  0  0  0  0999 V2000
   14.9358   -4.3137    0.0000 C   0  0  0  0  0  0  0  0  0  0  0  0
   13.7195   -3.4359    0.0000 O   0  0  0  0  0  0  0  0  0  0  0  0
   13.8712   -1.9438    0.0000 N   0  0  0  0  0  0  0  0  0  0  0  0
   12.6549   -1.0660    0.0000 C   0  0  0  0  0  0  0  0  0  0  0  0
   11.2298   -1.5342    0.0000 C   0  0  0  0  0  0  0  0  0  0  0  0
   10.3441   -0.3236    0.0000 N   0  0  0  0  0  0  0  0  0  0  0  0
   11.2219    0.8928    0.0000 C   0  0  0  0  0  0  0  0  0  0  0  0
   12.6499    0.4340    0.0000 C   0  0  0  0  0  0  0  0  0  0  0  0
   13.8606    1.3195    0.0000 C   0  0  0  0  0  0  0  0  0  0  0  0
   13.6990    2.8109    0.0000 N   0  0  0  0  0  0  0  0  0  0  0  0
    8.8441   -0.3286    0.0000 C   0  0  0  0  0  0  0  0  0  0  0  0
    8.0900    0.9681    0.0000 N   0  0  0  0  0  0  0  0  0  0  0  0
    6.5898    0.9631    0.0000 C   0  0  0  0  0  0  0  0  0  0  0  0
    5.8357    2.2597    0.0000 N   0  0  0  0  0  0  0  0  0  0  0  0
    4.3357    2.2548    0.0000 C   0  0  0  0  0  0  0  0  0  0  0  0
    3.5900    0.9533    0.0000 C   0  0  0  0  0  0  0  0  0  0  0  0
    2.0901    0.9485    0.0000 C   0  0  0  0  0  0  0  0  0  0  0  0
    1.3357    2.2449    0.0000 O   0  0  0  0  0  0  0  0  0  0  0  0
    1.3442   -0.3532    0.0000 O   0  0  0  0  0  0  0  0  0  0  0  0
    4.3442   -0.3433    0.0000 C   0  0  0  0  0  0  0  0  0  0  0  0
    3.5985   -1.6448    0.0000 O   0  0  0  0  0  0  0  0  0  0  0  0
    5.8442   -0.3384    0.0000 C   0  0  0  0  0  0  0  0  0  0  0  0
    6.5985   -1.6349    0.0000 C   0  0  0  0  0  0  0  0  0  0  0  0
    8.0985   -1.6300    0.0000 C   0  0  0  0  0  0  0  0  0  0  0  0
    8.8526   -2.9267    0.0000 F   0  0  0  0  0  0  0  0  0  0  0  0
    6.5815    3.5612    0.0000 C   0  0  0  0  0  0  0  0  0  0  0  0
    6.5765    5.0612    0.0000 C   0  0  0  0  0  0  0  0  0  0  0  0
    7.8779    4.3155    0.0000 C   0  0  0  0  0  0  0  0  0  0  0  0
  1  2  1  0  0  0  0
  2  3  1  0  0  0  0
  3  4  2  0  0  0  0
  5  4  1  0  0  0  0
  4  8  1  0  0  0  0
  6  5  1  0  0  0  0
  7  6  1  0  0  0  0
  6 11  1  0  0  0  0
  8  7  1  0  0  0  0
  8  9  1  0  0  0  0
  9 10  1  0  0  0  0
 12 11  2  0  0  0  0
 11 24  1  0  0  0  0
 13 12  1  0  0  0  0
 14 13  1  0  0  0  0
 13 22  2  0  0  0  0
 15 14  1  0  0  0  0
 14 26  1  0  0  0  0
 16 15  2  0  0  0  0
 16 17  1  0  0  0  0
 20 16  1  0  0  0  0
 17 18  2  0  0  0  0
 17 19  1  0  0  0  0
 20 21  2  0  0  0  0
 22 20  1  0  0  0  0
 23 22  1  0  0  0  0
 24 23  2  0  0  0  0
 24 25  1  0  0  0  0
 27 26  1  0  0  0  0
 26 28  1  0  0  0  0
 28 27  1  0  0  0  0
M  END
> <Inchi_key>
ZRCVYEYHRGVLOC-HYARGMPZSA-N

> <Source>
Mulliner

> <ID>
HT0971

> <H_MFHB>
0

> <CAS>


> <Cholestasis>


> <Name>
gemifloxacin mesylate;gemifloxacin

> <Class>
0


$$$$