
  -INDIGO-08031710012D

 12 12  0  0  0  0  0  0  0  0999 V2000
    8.6250    0.4330    0.0000 C   0  0  0  0  0  0  0  0  0  0  0  0
    7.8750    1.7321    0.0000 C   0  0  0  0  0  0  0  0  0  0  0  0
    6.3750    1.7321    0.0000 O   0  0  0  0  0  0  0  0  0  0  0  0
    5.6250    3.0311    0.0000 C   0  0  0  0  0  0  0  0  0  0  0  0
    6.3750    4.3301    0.0000 O   0  0  0  0  0  0  0  0  0  0  0  0
    4.1251    3.0311    0.0000 C   0  0  0  0  0  0  0  0  0  0  0  0
    3.3750    1.7321    0.0000 C   0  0  0  0  0  0  0  0  0  0  0  0
    1.8750    1.7321    0.0000 C   0  0  0  0  0  0  0  0  0  0  0  0
    1.1251    3.0311    0.0000 C   0  0  0  0  0  0  0  0  0  0  0  0
   -0.3750    3.0311    0.0000 N   0  0  0  0  0  0  0  0  0  0  0  0
    1.8750    4.3301    0.0000 C   0  0  0  0  0  0  0  0  0  0  0  0
    3.3750    4.3301    0.0000 C   0  0  0  0  0  0  0  0  0  0  0  0
  1  2  1  0  0  0  0
  2  3  1  0  0  0  0
  3  4  1  0  0  0  0
  4  5  2  0  0  0  0
  4  6  1  0  0  0  0
  7  6  2  0  0  0  0
  6 12  1  0  0  0  0
  8  7  1  0  0  0  0
  9  8  2  0  0  0  0
  9 10  1  0  0  0  0
 11  9  1  0  0  0  0
 12 11  2  0  0  0  0
M  END
> <Inchi_key>
BLFLLBZGZJTVJG-UHFFFAOYSA-N

> <Source>
Mulliner

> <ID>
HT0248

> <H_MFHB>
0

> <CAS>


> <Cholestasis>


> <Name>
benzocaine

> <Class>
0

$$$$