
  -INDIGO-08031710012D

 17 17  0  0  0  0  0  0  0  0999 V2000
   10.0136   -3.1243    0.0000 N   0  0  0  0  0  0  0  0  0  0  0  0
    8.7146   -3.8742    0.0000 C   0  0  0  0  0  0  0  0  0  0  0  0
    8.7146   -5.3742    0.0000 O   0  0  0  0  0  0  0  0  0  0  0  0
    7.4156   -3.1243    0.0000 O   0  0  0  0  0  0  0  0  0  0  0  0
    6.1164   -3.8742    0.0000 C   0  0  0  0  0  0  0  0  0  0  0  0
    4.8176   -3.1243    0.0000 C   0  0  0  0  0  0  0  0  0  0  0  0
    4.8176   -1.6243    0.0000 C   0  0  0  0  0  0  0  0  0  0  0  0
    3.5184   -0.8742    0.0000 O   0  0  0  0  0  0  0  0  0  0  0  0
    3.5184    0.6258    0.0000 C   0  0  0  0  0  0  0  0  0  0  0  0
    4.8176    1.3757    0.0000 O   0  0  0  0  0  0  0  0  0  0  0  0
    2.2194    1.3757    0.0000 N   0  0  0  0  0  0  0  0  0  0  0  0
    3.5184   -3.8742    0.0000 C   0  0  0  0  0  0  0  0  0  0  0  0
    3.5184   -5.3742    0.0000 C   0  0  0  0  0  0  0  0  0  0  0  0
    2.2194   -6.1243    0.0000 C   0  0  0  0  0  0  0  0  0  0  0  0
    0.9204   -5.3742    0.0000 C   0  0  0  0  0  0  0  0  0  0  0  0
    0.9204   -3.8742    0.0000 C   0  0  0  0  0  0  0  0  0  0  0  0
    2.2194   -3.1243    0.0000 C   0  0  0  0  0  0  0  0  0  0  0  0
  1  2  1  0  0  0  0
  2  3  2  0  0  0  0
  2  4  1  0  0  0  0
  4  5  1  0  0  0  0
  5  6  1  0  0  0  0
  6  7  1  0  0  0  0
  6 12  1  0  0  0  0
  7  8  1  0  0  0  0
  8  9  1  0  0  0  0
  9 10  2  0  0  0  0
  9 11  1  0  0  0  0
 13 12  2  0  0  0  0
 12 17  1  0  0  0  0
 14 13  1  0  0  0  0
 15 14  2  0  0  0  0
 16 15  1  0  0  0  0
 17 16  2  0  0  0  0
M  END
> <Inchi_key>
WKGXYQFOCVYPAC-UHFFFAOYSA-N

> <Source>
Mulliner

> <ID>
HT0851

> <H_MFHB>
0

> <CAS>
25451-15-4

> <Cholestasis>


> <Name>
felbamate

> <Class>
0

$$$$