

  -INDIGO-08031710012D

 16 16  0  0  0  0  0  0  0  0999 V2000
    8.1283   -2.1780    0.0000 C   0  0  0  0  0  0  0  0  0  0  0  0
    6.8295   -1.4280    0.0000 C   0  0  0  0  0  0  0  0  0  0  0  0
    6.8295    0.0720    0.0000 N   0  0  0  0  0  0  0  0  0  0  0  0
    8.1283    0.8220    0.0000 C   0  0  0  0  0  0  0  0  0  0  0  0
    9.4275    0.0720    0.0000 C   0  0  0  0  0  0  0  0  0  0  0  0
    5.5303    0.8220    0.0000 C   0  0  0  0  0  0  0  0  0  0  0  0
    5.5303    2.3220    0.0000 O   0  0  0  0  0  0  0  0  0  0  0  0
    4.2313    0.0720    0.0000 C   0  0  0  0  0  0  0  0  0  0  0  0
    4.2313   -1.4280    0.0000 C   0  0  0  0  0  0  0  0  0  0  0  0
    2.9322   -2.1780    0.0000 C   0  0  0  0  0  0  0  0  0  0  0  0
    1.6332   -1.4280    0.0000 C   0  0  0  0  0  0  0  0  0  0  0  0
    0.3342   -2.1780    0.0000 O   0  0  0  0  0  0  0  0  0  0  0  0
    1.6332    0.0720    0.0000 C   0  0  0  0  0  0  0  0  0  0  0  0
    0.3342    0.8220    0.0000 O   0  0  0  0  0  0  0  0  0  0  0  0
    0.3342    2.3220    0.0000 C   0  0  0  0  0  0  0  0  0  0  0  0
    2.9322    0.8220    0.0000 C   0  0  0  0  0  0  0  0  0  0  0  0
  1  2  1  0  0  0  0
  2  3  1  0  0  0  0
  3  4  1  0  0  0  0
  3  6  1  0  0  0  0
  4  5  1  0  0  0  0
  6  7  2  0  0  0  0
  6  8  1  0  0  0  0
  9  8  2  0  0  0  0
  8 16  1  0  0  0  0
 10  9  1  0  0  0  0
 11 10  2  0  0  0  0
 11 12  1  0  0  0  0
 13 11  1  0  0  0  0
 13 14  1  0  0  0  0
 16 13  2  0  0  0  0
 14 15  1  0  0  0  0
M  END
> <Inchi_key>
BQJODPIMMWWMFC-UHFFFAOYSA-N

> <Source>
Mulliner

> <ID>
HT2969

> <H_MFHB>
0

> <CAS>


> <Cholestasis>


> <Name>


> <Class>
0


$$$$