

  -INDIGO-08031710012D

 32 32  0  0  0  0  0  0  0  0999 V2000
    1.3699   -5.1131    0.0000 C   0  0  0  0  0  0  0  0  0  0  0  0
    2.6692   -4.3631    0.0000 C   0  0  0  0  0  0  0  0  0  0  0  0
    3.9682   -5.1131    0.0000 O   0  0  0  0  0  0  0  0  0  0  0  0
    2.6692   -2.8631    0.0000 N   0  0  0  0  0  0  0  0  0  0  0  0
    1.3699   -2.1131    0.0000 C   0  0  0  0  0  0  0  0  0  0  0  0
    0.0709   -2.8631    0.0000 C   0  0  0  0  0  0  0  0  0  0  0  0
    0.0709   -4.3631    0.0000 O   0  0  0  0  0  0  0  0  0  0  0  0
   -1.2281   -2.1131    0.0000 C   0  0  0  0  0  0  0  0  0  0  0  0
   -2.5271   -2.8631    0.0000 O   0  0  0  0  0  0  0  0  0  0  0  0
    3.9682   -2.1131    0.0000 C   0  0  0  0  0  0  0  0  0  0  0  0
    3.9682   -0.6131    0.0000 C   0  0  0  0  0  0  0  0  0  0  0  0
    2.6692    0.1369    0.0000 I   0  0  0  0  0  0  0  0  0  0  0  0
    5.2672    0.1369    0.0000 C   0  0  0  0  0  0  0  0  0  0  0  0
    5.2672    1.6369    0.0000 C   0  0  0  0  0  0  0  0  0  0  0  0
    6.5662    2.3869    0.0000 O   0  0  0  0  0  0  0  0  0  0  0  0
    3.9682    2.3869    0.0000 N   0  0  0  0  0  0  0  0  0  0  0  0
    3.9682    3.8869    0.0000 C   0  0  0  0  0  0  0  0  0  0  0  0
    2.6692    4.6369    0.0000 C   0  0  0  0  0  0  0  0  0  0  0  0
    2.6692    6.1369    0.0000 O   0  0  0  0  0  0  0  0  0  0  0  0
    6.5662   -0.6131    0.0000 C   0  0  0  0  0  0  0  0  0  0  0  0
    7.8651    0.1369    0.0000 I   0  0  0  0  0  0  0  0  0  0  0  0
    6.5662   -2.1131    0.0000 C   0  0  0  0  0  0  0  0  0  0  0  0
    7.8651   -2.8631    0.0000 C   0  0  0  0  0  0  0  0  0  0  0  0
    7.8651   -4.3631    0.0000 O   0  0  0  0  0  0  0  0  0  0  0  0
    9.1644   -2.1131    0.0000 N   0  0  0  0  0  0  0  0  0  0  0  0
   10.4634   -2.8631    0.0000 C   0  0  0  0  0  0  0  0  0  0  0  0
   11.7624   -2.1131    0.0000 C   0  0  0  0  0  0  0  0  0  0  0  0
   11.7624   -0.6131    0.0000 O   0  0  0  0  0  0  0  0  0  0  0  0
   13.0614   -2.8631    0.0000 C   0  0  0  0  0  0  0  0  0  0  0  0
   14.3604   -2.1131    0.0000 O   0  0  0  0  0  0  0  0  0  0  0  0
    5.2672   -2.8631    0.0000 C   0  0  0  0  0  0  0  0  0  0  0  0
    5.2672   -4.3631    0.0000 I   0  0  0  0  0  0  0  0  0  0  0  0
  1  2  1  0  0  0  0
  2  3  2  0  0  0  0
  2  4  1  0  0  0  0
  4  5  1  0  0  0  0
  4 10  1  0  0  0  0
  5  6  1  0  0  0  0
  6  7  1  0  0  0  0
  6  8  1  0  0  0  0
  8  9  1  0  0  0  0
 11 10  2  0  0  0  0
 10 31  1  0  0  0  0
 11 12  1  0  0  0  0
 13 11  1  0  0  0  0
 13 14  1  0  0  0  0
 20 13  2  0  0  0  0
 14 15  2  0  0  0  0
 14 16  1  0  0  0  0
 16 17  1  0  0  0  0
 17 18  1  0  0  0  0
 18 19  1  0  0  0  0
 20 21  1  0  0  0  0
 22 20  1  0  0  0  0
 22 23  1  0  0  0  0
 31 22  2  0  0  0  0
 23 24  2  0  0  0  0
 23 25  1  0  0  0  0
 25 26  1  0  0  0  0
 26 27  1  0  0  0  0
 27 28  1  0  0  0  0
 27 29  1  0  0  0  0
 29 30  1  0  0  0  0
 31 32  1  0  0  0  0
M  END
> <Inchi_key>
UUMLTINZBQPNGF-UHFFFAOYSA-N

> <Source>
Mulliner

> <ID>
HT1118

> <H_MFHB>
0

> <CAS>


> <Cholestasis>


> <Name>
ioxilan

> <Class>
0


$$$$