

  -INDIGO-08031710012D

 20 22  0  0  0  0  0  0  0  0999 V2000
   14.2079   -2.0014    0.0000 C   0  0  0  0  0  0  0  0  0  0  0  0
   12.7890   -2.4880    0.0000 N   0  0  0  0  0  0  0  0  0  0  0  0
   12.5010   -3.9601    0.0000 C   0  0  0  0  0  0  0  0  0  0  0  0
   11.6582   -1.5026    0.0000 C   0  0  0  0  0  0  0  0  0  0  0  0
   10.2393   -1.9893    0.0000 C   0  0  0  0  0  0  0  0  0  0  0  0
    9.1085   -1.0039    0.0000 C   0  0  0  0  0  0  0  0  0  0  0  0
    9.2410    0.4903    0.0000 C   0  0  0  0  0  0  0  0  0  0  0  0
    7.8608    1.0780    0.0000 N   0  0  0  0  0  0  0  0  0  0  0  0
    6.8755   -0.0529    0.0000 C   0  0  0  0  0  0  0  0  0  0  0  0
    5.3756   -0.0773    0.0000 C   0  0  0  0  0  0  0  0  0  0  0  0
    4.6467   -1.3884    0.0000 C   0  0  0  0  0  0  0  0  0  0  0  0
    5.4179   -2.6750    0.0000 C   0  0  0  0  0  0  0  0  0  0  0  0
    4.6891   -3.9861    0.0000 C   0  0  0  0  0  0  0  0  0  0  0  0
    3.1892   -4.0105    0.0000 N   0  0  0  0  0  0  0  0  0  0  0  0
    2.3274   -5.2382    0.0000 C   0  0  0  0  0  0  0  0  0  0  0  0
    0.8935   -4.7980    0.0000 N   0  0  0  0  0  0  0  0  0  0  0  0
    0.8691   -3.2982    0.0000 C   0  0  0  0  0  0  0  0  0  0  0  0
    2.2880   -2.8115    0.0000 N   0  0  0  0  0  0  0  0  0  0  0  0
    6.9176   -2.6506    0.0000 C   0  0  0  0  0  0  0  0  0  0  0  0
    7.6465   -1.3396    0.0000 C   0  0  0  0  0  0  0  0  0  0  0  0
  1  2  1  0  0  0  0
  2  3  1  0  0  0  0
  2  4  1  0  0  0  0
  4  5  1  0  0  0  0
  5  6  1  0  0  0  0
  7  6  2  0  0  0  0
  6 20  1  0  0  0  0
  8  7  1  0  0  0  0
  9  8  1  0  0  0  0
 10  9  1  0  0  0  0
  9 20  2  0  0  0  0
 11 10  2  0  0  0  0
 12 11  1  0  0  0  0
 12 13  1  0  0  0  0
 19 12  2  0  0  0  0
 13 14  1  0  0  0  0
 15 14  1  0  0  0  0
 14 18  1  0  0  0  0
 16 15  2  0  0  0  0
 17 16  1  0  0  0  0
 18 17  2  0  0  0  0
 20 19  1  0  0  0  0
M  END
> <Inchi_key>
ULFRLSNUDGIQQP-UHFFFAOYSA-N

> <Source>
Mulliner , Kotsampasakou

> <ID>
EK0475;HT1836

> <H_MFHB>
0

> <CAS>


> <Cholestasis>
0

> <Name>
rizatriptan benzoate;rizatriptan

> <Class>
0


$$$$