

  -INDIGO-08031710012D

 42 43  0  0  0  0  0  0  0  0999 V2000
   10.4463   10.4462    0.0000 C   0  0  0  0  0  0  0  0  0  0  0  0
   10.4463    8.9462    0.0000 C   0  0  0  0  0  0  0  0  0  0  0  0
   11.7451    8.1962    0.0000 N   0  0  0  0  0  0  0  0  0  0  0  0
   11.7451    6.6963    0.0000 C   0  0  0  0  0  0  0  0  0  0  0  0
   10.4463    5.9463    0.0000 C   0  0  0  0  0  0  0  0  0  0  0  0
   10.4463    4.4461    0.0000 C   0  0  0  0  0  0  0  0  0  0  0  0
   11.7451    3.6961    0.0000 O   0  0  0  0  0  0  0  0  0  0  0  0
   11.7451    2.1962    0.0000 P   0  0  0  0  0  0  0  0  0  0  0  0
   11.7451    0.6962    0.0000 O   0  0  0  0  0  0  0  0  0  0  0  0
   13.2452    2.1962    0.0000 O   0  0  0  0  0  0  0  0  0  0  0  0
   10.2452    2.1962    0.0000 O   0  0  0  0  0  0  0  0  0  0  0  0
    9.1470    6.6963    0.0000 C   0  0  0  0  0  0  0  0  0  0  0  0
    7.8482    5.9463    0.0000 C   0  0  0  0  0  0  0  0  0  0  0  0
    6.5489    6.6963    0.0000 N   0  0  0  0  0  0  0  0  0  0  0  0
    5.2501    5.9463    0.0000 C   0  0  0  0  0  0  0  0  0  0  0  0
    5.2501    4.4461    0.0000 C   0  0  0  0  0  0  0  0  0  0  0  0
    3.9511    3.6961    0.0000 N   0  0  0  0  0  0  0  0  0  0  0  0
    3.9511    2.1962    0.0000 C   0  0  0  0  0  0  0  0  0  0  0  0
    5.2501    1.4462    0.0000 C   0  0  0  0  0  0  0  0  0  0  0  0
    5.2501   -0.0538    0.0000 O   0  0  0  0  0  0  0  0  0  0  0  0
    6.5489    2.1962    0.0000 O   0  0  0  0  0  0  0  0  0  0  0  0
    2.6518    4.4461    0.0000 C   0  0  0  0  0  0  0  0  0  0  0  0
    1.3530    3.6961    0.0000 C   0  0  0  0  0  0  0  0  0  0  0  0
    1.3530    2.1962    0.0000 C   0  0  0  0  0  0  0  0  0  0  0  0
    2.6518    1.4462    0.0000 O   0  0  0  0  0  0  0  0  0  0  0  0
    0.0537    1.4462    0.0000 C   0  0  0  0  0  0  0  0  0  0  0  0
    0.0537   -0.0538    0.0000 C   0  0  0  0  0  0  0  0  0  0  0  0
   -1.2451    2.1962    0.0000 N   0  0  0  0  0  0  0  0  0  0  0  0
   -1.2451    3.6961    0.0000 C   0  0  0  0  0  0  0  0  0  0  0  0
    0.0537    4.4461    0.0000 C   0  0  0  0  0  0  0  0  0  0  0  0
    0.0537    5.9463    0.0000 C   0  0  0  0  0  0  0  0  0  0  0  0
   -1.2451    6.6963    0.0000 O   0  0  0  0  0  0  0  0  0  0  0  0
   -1.2451    8.1962    0.0000 P   0  0  0  0  0  0  0  0  0  0  0  0
   -2.7452    8.1962    0.0000 O   0  0  0  0  0  0  0  0  0  0  0  0
    0.2548    8.1962    0.0000 O   0  0  0  0  0  0  0  0  0  0  0  0
   -1.2451    9.6962    0.0000 O   0  0  0  0  0  0  0  0  0  0  0  0
    6.5489    8.1962    0.0000 C   0  0  0  0  0  0  0  0  0  0  0  0
    5.2501    8.9462    0.0000 C   0  0  0  0  0  0  0  0  0  0  0  0
    3.9511    8.1962    0.0000 O   0  0  0  0  0  0  0  0  0  0  0  0
    5.2501   10.4462    0.0000 O   0  0  0  0  0  0  0  0  0  0  0  0
    9.1470    8.1962    0.0000 C   0  0  0  0  0  0  0  0  0  0  0  0
    7.8482    8.9462    0.0000 O   0  0  0  0  0  0  0  0  0  0  0  0
  1  2  1  0  0  0  0
  3  2  2  0  0  0  0
  2 41  1  0  0  0  0
  4  3  1  0  0  0  0
  5  4  2  0  0  0  0
  5  6  1  0  0  0  0
 12  5  1  0  0  0  0
  6  7  1  0  0  0  0
  7  8  1  0  0  0  0
  8  9  2  0  0  0  0
  8 10  1  0  0  0  0
  8 11  1  0  0  0  0
 12 13  1  0  0  0  0
 41 12  2  0  0  0  0
 13 14  1  0  0  0  0
 14 15  1  0  0  0  0
 14 37  1  0  0  0  0
 15 16  1  0  0  0  0
 16 17  1  0  0  0  0
 17 18  1  0  0  0  0
 17 22  1  0  0  0  0
 18 19  1  0  0  0  0
 19 20  2  0  0  0  0
 19 21  1  0  0  0  0
 22 23  1  0  0  0  0
 24 23  2  0  0  0  0
 23 30  1  0  0  0  0
 24 25  1  0  0  0  0
 26 24  1  0  0  0  0
 26 27  1  0  0  0  0
 28 26  2  0  0  0  0
 29 28  1  0  0  0  0
 30 29  2  0  0  0  0
 30 31  1  0  0  0  0
 31 32  1  0  0  0  0
 32 33  1  0  0  0  0
 33 34  2  0  0  0  0
 33 35  1  0  0  0  0
 33 36  1  0  0  0  0
 37 38  1  0  0  0  0
 38 39  2  0  0  0  0
 38 40  1  0  0  0  0
 41 42  1  0  0  0  0
M  END
> <Inchi_key>
SQKUFYLUXROIFM-UHFFFAOYSA-N

> <Source>
Mulliner

> <ID>
HT1266

> <H_MFHB>
0

> <CAS>


> <Cholestasis>


> <Name>
mangafodipir

> <Class>
0


$$$$