
  -INDIGO-08031710012D

 16 17  0  0  0  0  0  0  0  0999 V2000
   -0.1406    1.0555    0.0000 S   0  0  0  0  0  0  0  0  0  0  0  0
   -0.8906   -0.2436    0.0000 O   0  0  0  0  0  0  0  0  0  0  0  0
    1.3594    1.0555    0.0000 C   0  0  0  0  0  0  0  0  0  0  0  0
   -0.8906    2.3545    0.0000 C   0  0  0  0  0  0  0  0  0  0  0  0
    2.1094    2.3545    0.0000 C   0  0  0  0  0  0  0  0  0  0  0  0
    2.1094   -0.2436    0.0000 C   0  0  0  0  0  0  0  0  0  0  0  0
    3.6095    2.3545    0.0000 N   0  0  0  0  0  0  0  0  0  0  0  0
    1.3594   -1.5426    0.0000 O   0  0  0  0  0  0  0  0  0  0  0  0
    3.6095   -0.2436    0.0000 C   0  0  0  0  0  0  0  0  0  0  0  0
    4.3594    3.6535    0.0000 C   0  0  0  0  0  0  0  0  0  0  0  0
    4.3594    1.0555    0.0000 C   0  0  0  0  0  0  0  0  0  0  0  0
    4.3594   -1.5426    0.0000 C   0  0  0  0  0  0  0  0  0  0  0  0
    5.8594    1.0555    0.0000 C   0  0  0  0  0  0  0  0  0  0  0  0
    5.8594   -1.5426    0.0000 C   0  0  0  0  0  0  0  0  0  0  0  0
    6.6095   -0.2436    0.0000 C   0  0  0  0  0  0  0  0  0  0  0  0
    8.1094   -0.2436    0.0000 F   0  0  0  0  0  0  0  0  0  0  0  0
  1  2  1  0  0  0  0
  1  3  1  0  0  0  0
  1  4  1  0  0  0  0
  5  3  2  0  0  0  0
  3  6  1  0  0  0  0
  7  5  1  0  0  0  0
  6  8  2  0  0  0  0
  6  9  1  0  0  0  0
  7 10  1  0  0  0  0
 11  7  1  0  0  0  0
 12  9  2  0  0  0  0
  9 11  1  0  0  0  0
 11 13  2  0  0  0  0
 14 12  1  0  0  0  0
 13 15  1  0  0  0  0
 15 14  2  0  0  0  0
 15 16  1  0  0  0  0
M  CHG  2   1   1   2  -1
M  END
> <Inchi_key>
UYGONJYYUKVHDD-UHFFFAOYSA-N

> <Source>
Mulliner

> <ID>
HT0885

> <H_MFHB>
0

> <CAS>
76568-02-0

> <Cholestasis>


> <Name>
flosequinan

> <Class>
0

$$$$