
  -INDIGO-08031710012D

 29 32  0  0  0  0  0  0  0  0999 V2000
   -0.2251    3.0124    0.0000 C   0  0  0  0  0  0  0  0  0  0  0  0
    1.0740    2.2624    0.0000 C   0  0  0  0  0  0  0  0  0  0  0  0
    2.3729    3.0124    0.0000 C   0  0  0  0  0  0  0  0  0  0  0  0
    3.6720    2.2624    0.0000 O   0  0  0  0  0  0  0  0  0  0  0  0
    3.6720    0.7625    0.0000 C   0  0  0  0  0  0  0  0  0  0  0  0
    4.9711    0.0123    0.0000 C   0  0  0  0  0  0  0  0  0  0  0  0
    4.9711   -1.4876    0.0000 C   0  0  0  0  0  0  0  0  0  0  0  0
    3.6720   -2.2376    0.0000 C   0  0  0  0  0  0  0  0  0  0  0  0
    2.3729   -1.4876    0.0000 C   0  0  0  0  0  0  0  0  0  0  0  0
    2.3729    0.0123    0.0000 C   0  0  0  0  0  0  0  0  0  0  0  0
    1.0740    0.7625    0.0000 C   0  0  0  0  0  0  0  0  0  0  0  0
   -0.2251    0.0123    0.0000 O   0  0  0  0  0  0  0  0  0  0  0  0
    6.2702    0.7625    0.0000 C   0  0  0  0  0  0  0  0  0  0  0  0
    6.2702    2.2624    0.0000 O   0  0  0  0  0  0  0  0  0  0  0  0
    7.5691    0.0123    0.0000 O   0  0  0  0  0  0  0  0  0  0  0  0
    8.8682    0.7625    0.0000 C   0  0  0  0  0  0  0  0  0  0  0  0
   10.1673    0.0123    0.0000 C   0  0  0  0  0  0  0  0  0  0  0  0
   11.4664    0.7625    0.0000 N   0  0  0  0  0  0  0  0  0  0  0  0
   11.4664    2.2624    0.0000 C   0  0  0  0  0  0  0  0  0  0  0  0
   12.7653    3.0124    0.0000 C   0  0  0  0  0  0  0  0  0  0  0  0
   14.0644    2.2624    0.0000 C   0  0  0  0  0  0  0  0  0  0  0  0
   14.0644    0.7625    0.0000 C   0  0  0  0  0  0  0  0  0  0  0  0
   12.7653    0.0123    0.0000 C   0  0  0  0  0  0  0  0  0  0  0  0
    2.3729    4.5123    0.0000 C   0  0  0  0  0  0  0  0  0  0  0  0
    1.0740    5.2625    0.0000 C   0  0  0  0  0  0  0  0  0  0  0  0
    1.0740    6.7624    0.0000 C   0  0  0  0  0  0  0  0  0  0  0  0
    2.3729    7.5124    0.0000 C   0  0  0  0  0  0  0  0  0  0  0  0
    3.6720    6.7624    0.0000 C   0  0  0  0  0  0  0  0  0  0  0  0
    3.6720    5.2625    0.0000 C   0  0  0  0  0  0  0  0  0  0  0  0
  1  2  1  0  0  0  0
  3  2  2  0  0  0  0
  2 11  1  0  0  0  0
  4  3  1  0  0  0  0
  3 24  1  0  0  0  0
  5  4  1  0  0  0  0
  6  5  1  0  0  0  0
  5 10  2  0  0  0  0
  7  6  2  0  0  0  0
  6 13  1  0  0  0  0
  8  7  1  0  0  0  0
  9  8  2  0  0  0  0
 10  9  1  0  0  0  0
 11 10  1  0  0  0  0
 11 12  2  0  0  0  0
 13 14  2  0  0  0  0
 13 15  1  0  0  0  0
 15 16  1  0  0  0  0
 16 17  1  0  0  0  0
 17 18  1  0  0  0  0
 19 18  1  0  0  0  0
 18 23  1  0  0  0  0
 20 19  1  0  0  0  0
 21 20  1  0  0  0  0
 22 21  1  0  0  0  0
 23 22  1  0  0  0  0
 25 24  2  0  0  0  0
 24 29  1  0  0  0  0
 26 25  1  0  0  0  0
 27 26  2  0  0  0  0
 28 27  1  0  0  0  0
 29 28  2  0  0  0  0
M  END
> <Inchi_key>
SPIUTQOUKAMGCX-UHFFFAOYSA-N

> <Source>
Mulliner , Kotsampasakou

> <ID>
EK0214;HT0879

> <H_MFHB>
0

> <CAS>
3717-88-2

> <Cholestasis>
0

> <Name>
flavoxate hydrochloride;flavoxate

> <Class>
0

$$$$