

  -INDIGO-08031710012D

 31 33  0  0  0  0  0  0  0  0999 V2000
   -0.4009    1.7728    0.0000 N   0  0  0  0  0  0  0  0  0  0  0  0
    1.0705    1.4814    0.0000 C   0  0  0  0  0  0  0  0  0  0  0  0
    1.5539    0.0613    0.0000 N   0  0  0  0  0  0  0  0  0  0  0  0
    3.0253   -0.2301    0.0000 C   0  0  0  0  0  0  0  0  0  0  0  0
    4.0134    0.8985    0.0000 N   0  0  0  0  0  0  0  0  0  0  0  0
    3.5301    2.3185    0.0000 C   0  0  0  0  0  0  0  0  0  0  0  0
    2.0586    2.6099    0.0000 C   0  0  0  0  0  0  0  0  0  0  0  0
    1.8811    4.0994    0.0000 N   0  0  0  0  0  0  0  0  0  0  0  0
    3.2427    4.7285    0.0000 C   0  0  0  0  0  0  0  0  0  0  0  0
    4.2618    3.6279    0.0000 N   0  0  0  0  0  0  0  0  0  0  0  0
    5.7514    3.8054    0.0000 C   0  0  0  0  0  0  0  0  0  0  0  0
    6.7704    2.7048    0.0000 O   0  0  0  0  0  0  0  0  0  0  0  0
    8.1320    3.3339    0.0000 C   0  0  0  0  0  0  0  0  0  0  0  0
    9.4416    2.6020    0.0000 C   0  0  0  0  0  0  0  0  0  0  0  0
   10.7300    3.3700    0.0000 O   0  0  0  0  0  0  0  0  0  0  0  0
   12.0393    2.6382    0.0000 P   0  0  0  0  0  0  0  0  0  0  0  0
   12.7713    3.9475    0.0000 O   0  0  0  0  0  0  0  0  0  0  0  0
   11.3076    1.3288    0.0000 O   0  0  0  0  0  0  0  0  0  0  0  0
   13.3486    1.9063    0.0000 O   0  0  0  0  0  0  0  0  0  0  0  0
   14.6370    2.6743    0.0000 P   0  0  0  0  0  0  0  0  0  0  0  0
   15.4051    1.3859    0.0000 O   0  0  0  0  0  0  0  0  0  0  0  0
   13.8692    3.9628    0.0000 O   0  0  0  0  0  0  0  0  0  0  0  0
   15.9255    3.4423    0.0000 O   0  0  0  0  0  0  0  0  0  0  0  0
   17.2350    2.7105    0.0000 P   0  0  0  0  0  0  0  0  0  0  0  0
   16.5031    1.4011    0.0000 O   0  0  0  0  0  0  0  0  0  0  0  0
   17.9667    4.0198    0.0000 O   0  0  0  0  0  0  0  0  0  0  0  0
   18.5443    1.9786    0.0000 O   0  0  0  0  0  0  0  0  0  0  0  0
    7.9545    4.8233    0.0000 C   0  0  0  0  0  0  0  0  0  0  0  0
    9.0551    5.8424    0.0000 O   0  0  0  0  0  0  0  0  0  0  0  0
    6.4831    5.1147    0.0000 C   0  0  0  0  0  0  0  0  0  0  0  0
    5.8540    6.4764    0.0000 O   0  0  0  0  0  0  0  0  0  0  0  0
  1  2  1  0  0  0  0
  3  2  2  0  0  0  0
  2  7  1  0  0  0  0
  4  3  1  0  0  0  0
  5  4  2  0  0  0  0
  6  5  1  0  0  0  0
  6  7  2  0  0  0  0
 10  6  1  0  0  0  0
  7  8  1  0  0  0  0
  8  9  2  0  0  0  0
  9 10  1  0  0  0  0
 10 11  1  0  0  0  0
 12 11  1  0  0  0  0
 11 30  1  0  0  0  0
 13 12  1  0  0  0  0
 13 14  1  0  0  0  0
 28 13  1  0  0  0  0
 14 15  1  0  0  0  0
 15 16  1  0  0  0  0
 16 17  2  0  0  0  0
 16 18  1  0  0  0  0
 16 19  1  0  0  0  0
 19 20  1  0  0  0  0
 20 21  2  0  0  0  0
 20 22  1  0  0  0  0
 20 23  1  0  0  0  0
 23 24  1  0  0  0  0
 24 25  2  0  0  0  0
 24 26  1  0  0  0  0
 24 27  1  0  0  0  0
 28 29  1  0  0  0  0
 30 28  1  0  0  0  0
 30 31  1  0  0  0  0
M  END
> <Inchi_key>
ZKHQWZAMYRWXGA-UHFFFAOYSA-N

> <Source>
Mulliner

> <ID>
HT0076

> <H_MFHB>
0

> <CAS>


> <Cholestasis>


> <Name>
adenosine triphosphate

> <Class>
0


$$$$