
  -INDIGO-08031710012D

 21 24  0  0  0  0  0  0  0  0999 V2000
   -0.0038    0.0138    0.0000 O   0  0  0  0  0  0  0  0  0  0  0  0
    1.4962    0.0100    0.0000 C   0  0  0  0  0  0  0  0  0  0  0  0
    2.2428   -1.2910    0.0000 C   0  0  0  0  0  0  0  0  0  0  0  0
    3.7428   -1.2948    0.0000 C   0  0  0  0  0  0  0  0  0  0  0  0
    4.4872    0.0333    0.0000 C   0  0  0  0  0  0  0  0  0  0  0  0
    5.9498    0.0194    0.0000 C   0  0  0  0  0  0  0  0  0  0  0  0
    6.6537    1.3344    0.0000 C   0  0  0  0  0  0  0  0  0  0  0  0
    5.9551    2.5717    0.0000 C   0  0  0  0  0  0  0  0  0  0  0  0
    6.6894    3.8413    0.0000 C   0  0  0  0  0  0  0  0  0  0  0  0
    5.9586    5.1223    0.0000 C   0  0  0  0  0  0  0  0  0  0  0  0
    4.4845    5.1157    0.0000 C   0  0  0  0  0  0  0  0  0  0  0  0
    3.7500    3.8461    0.0000 C   0  0  0  0  0  0  0  0  0  0  0  0
    4.4793    2.5651    0.0000 C   0  0  0  0  0  0  0  0  0  0  0  0
    5.1997    1.3153    0.0000 C   0  0  0  0  0  0  0  0  0  0  0  0
    6.8304    0.3414    0.0000 C   0  0  0  0  0  0  0  0  0  0  0  0
    8.0761    1.3415    0.0000 N   0  0  0  0  0  0  0  0  0  0  0  0
    9.4898    1.8435    0.0000 C   0  0  0  0  0  0  0  0  0  0  0  0
   10.6313    0.8705    0.0000 C   0  0  0  0  0  0  0  0  0  0  0  0
   12.0447    1.3725    0.0000 C   0  0  0  0  0  0  0  0  0  0  0  0
    3.7451    1.2955    0.0000 C   0  0  0  0  0  0  0  0  0  0  0  0
    2.2494    1.3071    0.0000 C   0  0  0  0  0  0  0  0  0  0  0  0
  1  2  1  0  0  0  0
  3  2  2  0  0  0  0
  2 21  1  0  0  0  0
  4  3  1  0  0  0  0
  5  4  2  0  0  0  0
  6  5  1  0  0  0  0
  5 20  1  0  0  0  0
  7  6  1  0  0  0  0
  7  8  1  0  0  0  0
 16  7  1  0  0  0  0
  8  9  1  0  0  0  0
  8 13  1  0  0  0  0
  9 10  1  0  0  0  0
 10 11  1  0  0  0  0
 11 12  1  0  0  0  0
 12 13  1  0  0  0  0
 13 14  1  0  0  0  0
 20 13  1  0  0  0  0
 14 15  1  0  0  0  0
 15 16  1  0  0  0  0
 16 17  1  0  0  0  0
 17 18  1  0  0  0  0
 18 19  2  0  0  0  0
 21 20  2  0  0  0  0
M  END
> <Inchi_key>
OZYUPQUCAUTOBP-UHFFFAOYSA-N

> <Source>
Mulliner

> <ID>
HT1190

> <H_MFHB>
0

> <CAS>


> <Cholestasis>


> <Name>
levallorphan

> <Class>
0

$$$$