
  -INDIGO-08031710012D

 20 23  0  0  0  0  0  0  0  0999 V2000
    0.8981   -6.2222    0.0000 C   0  0  0  0  0  0  0  0  0  0  0  0
    0.8997   -4.7222    0.0000 N   0  0  0  0  0  0  0  0  0  0  0  0
   -0.3989   -3.9720    0.0000 C   0  0  0  0  0  0  0  0  0  0  0  0
   -0.4013   -2.4753    0.0000 C   0  0  0  0  0  0  0  0  0  0  0  0
    0.9011   -1.7251    0.0000 C   0  0  0  0  0  0  0  0  0  0  0  0
    0.9014   -0.2224    0.0000 C   0  0  0  0  0  0  0  0  0  0  0  0
    2.1996    0.5224    0.0000 C   0  0  0  0  0  0  0  0  0  0  0  0
    3.4984   -0.2278    0.0000 C   0  0  0  0  0  0  0  0  0  0  0  0
    3.5008   -1.7234    0.0000 C   0  0  0  0  0  0  0  0  0  0  0  0
    2.1988   -2.4747    0.0000 C   0  0  0  0  0  0  0  0  0  0  0  0
    2.1959   -3.9773    0.0000 C   0  0  0  0  0  0  0  0  0  0  0  0
    3.4970   -4.7259    0.0000 C   0  0  0  0  0  0  0  0  0  0  0  0
    4.7986   -3.9748    0.0000 C   0  0  0  0  0  0  0  0  0  0  0  0
    6.0991   -4.7230    0.0000 C   0  0  0  0  0  0  0  0  0  0  0  0
    7.3971   -3.9710    0.0000 C   0  0  0  0  0  0  0  0  0  0  0  0
    7.3973   -2.4728    0.0000 C   0  0  0  0  0  0  0  0  0  0  0  0
    8.6953   -1.7208    0.0000 O   0  0  0  0  0  0  0  0  0  0  0  0
    6.0971   -1.7248    0.0000 C   0  0  0  0  0  0  0  0  0  0  0  0
    6.0962   -0.2248    0.0000 O   0  0  0  0  0  0  0  0  0  0  0  0
    4.7995   -2.4736    0.0000 C   0  0  0  0  0  0  0  0  0  0  0  0
  1  2  1  0  0  0  0
  3  2  1  0  0  0  0
  2 11  1  0  0  0  0
  4  3  1  0  0  0  0
  5  4  1  0  0  0  0
  5  6  1  0  0  0  0
 10  5  2  0  0  0  0
  6  7  2  0  0  0  0
  7  8  1  0  0  0  0
  8  9  2  0  0  0  0
  9 10  1  0  0  0  0
 20  9  1  0  0  0  0
 10 11  1  0  0  0  0
 11 12  1  0  0  0  0
 12 13  1  0  0  0  0
 14 13  1  0  0  0  0
 13 20  2  0  0  0  0
 15 14  2  0  0  0  0
 16 15  1  0  0  0  0
 16 17  1  0  0  0  0
 18 16  2  0  0  0  0
 18 19  1  0  0  0  0
 20 18  1  0  0  0  0
M  END
> <Inchi_key>
VMWNQDUVQKEIOC-UHFFFAOYSA-N

> <Source>
Mulliner , Kotsampasakou

> <ID>
EK0037;HT0171

> <H_MFHB>
0

> <CAS>


> <Cholestasis>
0

> <Name>
apomorphine hydrochloride;apomorphine

> <Class>
0

$$$$