

  -INDIGO-08031710012D

 28 30  0  0  0  0  0  0  0  0999 V2000
    0.8615    0.5897    0.0000 C   0  0  0  0  0  0  0  0  0  0  0  0
    2.1603    1.3397    0.0000 C   0  0  0  0  0  0  0  0  0  0  0  0
    3.4593    0.5897    0.0000 C   0  0  0  0  0  0  0  0  0  0  0  0
    4.7584    1.3397    0.0000 C   0  0  0  0  0  0  0  0  0  0  0  0
    6.0574    0.5897    0.0000 C   0  0  0  0  0  0  0  0  0  0  0  0
    7.3565    1.3397    0.0000 C   0  0  0  0  0  0  0  0  0  0  0  0
    8.6555    0.5897    0.0000 C   0  0  0  0  0  0  0  0  0  0  0  0
    9.9546   -0.1603    0.0000 N   0  0  0  0  0  0  0  0  0  0  0  0
    4.7584    2.8397    0.0000 C   0  0  0  0  0  0  0  0  0  0  0  0
    3.4593    3.5897    0.0000 C   0  0  0  0  0  0  0  0  0  0  0  0
    3.4593    5.0897    0.0000 C   0  0  0  0  0  0  0  0  0  0  0  0
    2.1603    2.8397    0.0000 C   0  0  0  0  0  0  0  0  0  0  0  0
    0.8615    3.5897    0.0000 N   0  0  0  0  0  0  0  0  0  0  0  0
   -0.4375    2.8397    0.0000 C   0  0  0  0  0  0  0  0  0  0  0  0
   -0.4375    1.3397    0.0000 C   0  0  0  0  0  0  0  0  0  0  0  0
   -1.7366    0.5897    0.0000 C   0  0  0  0  0  0  0  0  0  0  0  0
   -3.0357    1.3397    0.0000 N   0  0  0  0  0  0  0  0  0  0  0  0
   -3.0357    2.8397    0.0000 C   0  0  0  0  0  0  0  0  0  0  0  0
   -4.3347    3.5897    0.0000 N   0  0  0  0  0  0  0  0  0  0  0  0
   -5.6338    2.8397    0.0000 C   0  0  0  0  0  0  0  0  0  0  0  0
   -6.9328    3.5897    0.0000 C   0  0  0  0  0  0  0  0  0  0  0  0
   -8.2319    2.8397    0.0000 C   0  0  0  0  0  0  0  0  0  0  0  0
   -8.2319    1.3397    0.0000 C   0  0  0  0  0  0  0  0  0  0  0  0
   -6.9328    0.5897    0.0000 C   0  0  0  0  0  0  0  0  0  0  0  0
   -5.6338    1.3397    0.0000 C   0  0  0  0  0  0  0  0  0  0  0  0
   -9.5309    0.5897    0.0000 C   0  0  0  0  0  0  0  0  0  0  0  0
  -10.8300   -0.1603    0.0000 N   0  0  0  0  0  0  0  0  0  0  0  0
   -1.7366    3.5897    0.0000 N   0  0  0  0  0  0  0  0  0  0  0  0
  1  2  1  0  0  0  0
  3  2  2  0  0  0  0
  2 12  1  0  0  0  0
  4  3  1  0  0  0  0
  4  5  1  0  0  0  0
  9  4  2  0  0  0  0
  5  6  2  0  0  0  0
  6  7  1  0  0  0  0
  7  8  3  0  0  0  0
 10  9  1  0  0  0  0
 10 11  1  0  0  0  0
 12 10  2  0  0  0  0
 12 13  1  0  0  0  0
 13 14  1  0  0  0  0
 15 14  2  0  0  0  0
 14 28  1  0  0  0  0
 16 15  1  0  0  0  0
 17 16  2  0  0  0  0
 18 17  1  0  0  0  0
 18 19  1  0  0  0  0
 28 18  2  0  0  0  0
 19 20  1  0  0  0  0
 21 20  2  0  0  0  0
 20 25  1  0  0  0  0
 22 21  1  0  0  0  0
 23 22  2  0  0  0  0
 24 23  1  0  0  0  0
 23 26  1  0  0  0  0
 25 24  2  0  0  0  0
 26 27  3  0  0  0  0
M  END
> <Inchi_key>
YIBOMRUWOWDFLG-ONEGZZNKSA-N

> <Source>
Mulliner

> <ID>
HT1824

> <H_MFHB>
0

> <CAS>


> <Cholestasis>


> <Name>
rilpivirine hydrochloride

> <Class>
0


$$$$