
  -INDIGO-08031710012D

 16 16  0  0  0  0  0  0  0  0999 V2000
    9.3245    2.4985    0.0000 C   0  0  0  0  0  0  0  0  0  0  0  0
    8.0255    1.7485    0.0000 C   0  0  0  0  0  0  0  0  0  0  0  0
    6.7264    2.4985    0.0000 C   0  0  0  0  0  0  0  0  0  0  0  0
    5.4274    1.7485    0.0000 C   0  0  0  0  0  0  0  0  0  0  0  0
    5.4274    0.2485    0.0000 C   0  0  0  0  0  0  0  0  0  0  0  0
    4.1284    2.4985    0.0000 C   0  0  0  0  0  0  0  0  0  0  0  0
    5.4274    3.2485    0.0000 C   0  0  0  0  0  0  0  0  0  0  0  0
    5.4274    4.7485    0.0000 C   0  0  0  0  0  0  0  0  0  0  0  0
    3.3784    1.1995    0.0000 C   0  0  0  0  0  0  0  0  0  0  0  0
    4.1284   -0.0996    0.0000 O   0  0  0  0  0  0  0  0  0  0  0  0
    1.8785    1.1995    0.0000 N   0  0  0  0  0  0  0  0  0  0  0  0
    1.1283    2.4985    0.0000 C   0  0  0  0  0  0  0  0  0  0  0  0
   -0.3716    2.4985    0.0000 O   0  0  0  0  0  0  0  0  0  0  0  0
    1.8785    3.7975    0.0000 N   0  0  0  0  0  0  0  0  0  0  0  0
    3.3784    3.7975    0.0000 C   0  0  0  0  0  0  0  0  0  0  0  0
    4.1284    5.0966    0.0000 O   0  0  0  0  0  0  0  0  0  0  0  0
  1  2  1  0  0  0  0
  2  3  1  0  0  0  0
  3  4  2  0  0  0  0
  4  5  1  0  0  0  0
  4  6  1  0  0  0  0
  6  7  1  0  0  0  0
  9  6  1  0  0  0  0
  6 15  1  0  0  0  0
  7  8  1  0  0  0  0
  9 10  2  0  0  0  0
 11  9  1  0  0  0  0
 12 11  1  0  0  0  0
 12 13  2  0  0  0  0
 14 12  1  0  0  0  0
 15 14  1  0  0  0  0
 15 16  2  0  0  0  0
M  END
> <Inchi_key>
RAFOHKSPUDGZPR-VOTSOKGWSA-N

> <Source>
Mulliner

> <ID>
HT2975

> <H_MFHB>
0

> <CAS>


> <Cholestasis>


> <Name>


> <Class>
0

$$$$