

  -INDIGO-08031709442D

 69 71  0  0  0  0  0  0  0  0999 V2000
   -3.3213   -7.4318    0.0000 S   0  0  0  0  0  0  0  0  0  0  0  0
   -3.0379   -5.9746    0.0000 S   0  0  0  0  0  0  0  0  0  0  0  0
   -1.6261   -5.4775    0.0000 C   0  0  0  0  0  0  0  0  0  0  0  0
   -1.2247   -4.0965    0.0000 C   0  0  0  0  0  0  0  0  0  0  0  0
   -2.1430   -2.9210    0.0000 N   0  0  0  0  0  0  0  0  0  0  0  0
   -1.5637   -1.5295    0.0000 C   0  0  0  0  0  0  0  0  0  0  0  0
   -0.0733   -1.3597    0.0000 O   0  0  0  0  0  0  0  0  0  0  0  0
   -2.4212   -0.3312    0.0000 C   0  0  0  0  0  0  0  0  0  0  0  0
   -3.9150   -0.4173    0.0000 N   0  0  0  0  0  0  0  0  0  0  0  0
   -4.7358    0.8423    0.0000 C   0  0  0  0  0  0  0  0  0  0  0  0
   -4.0465    2.1744    0.0000 O   0  0  0  0  0  0  0  0  0  0  0  0
   -6.2213    0.7852    0.0000 C   0  0  0  0  0  0  0  0  0  0  0  0
   -6.9434   -0.5334    0.0000 N   0  0  0  0  0  0  0  0  0  0  0  0
   -8.4346   -0.5671    0.0000 C   0  0  0  0  0  0  0  0  0  0  0  0
   -9.1730    0.7383    0.0000 O   0  0  0  0  0  0  0  0  0  0  0  0
   -9.2172   -1.8048    0.0000 C   0  0  0  0  0  0  0  0  0  0  0  0
   -8.5812   -3.1687    0.0000 N   0  0  0  0  0  0  0  0  0  0  0  0
   -9.4323   -4.3835    0.0000 C   0  0  0  0  0  0  0  0  0  0  0  0
  -10.9042   -4.0934    0.0000 O   0  0  0  0  0  0  0  0  0  0  0  0
   -9.1307   -5.7230    0.0000 C   0  0  0  0  0  0  0  0  0  0  0  0
   -8.1674   -6.6828    0.0000 N   0  0  0  0  0  0  0  0  0  0  0  0
   -6.6846   -6.6519    0.0000 C   0  0  0  0  0  0  0  0  0  0  0  0
   -5.9711   -5.3324    0.0000 O   0  0  0  0  0  0  0  0  0  0  0  0
   -5.8948   -7.9162    0.0000 C   0  0  0  0  0  0  0  0  0  0  0  0
   -6.7182   -9.1699    0.0000 N   0  0  0  0  0  0  0  0  0  0  0  0
   -4.5245   -8.1237    0.0000 C   0  0  0  0  0  0  0  0  0  0  0  0
  -10.4439   -6.4478    0.0000 C   0  0  0  0  0  0  0  0  0  0  0  0
  -10.4730   -7.9475    0.0000 C   0  0  0  0  0  0  0  0  0  0  0  0
   -9.1885   -8.7223    0.0000 C   0  0  0  0  0  0  0  0  0  0  0  0
   -9.2176  -10.2220    0.0000 C   0  0  0  0  0  0  0  0  0  0  0  0
  -10.5308  -10.9468    0.0000 C   0  0  0  0  0  0  0  0  0  0  0  0
  -10.5599  -12.4465    0.0000 O   0  0  0  0  0  0  0  0  0  0  0  0
  -11.8153  -10.1720    0.0000 C   0  0  0  0  0  0  0  0  0  0  0  0
  -11.7862   -8.6723    0.0000 C   0  0  0  0  0  0  0  0  0  0  0  0
  -10.7141   -1.7092    0.0000 C   0  0  0  0  0  0  0  0  0  0  0  0
  -11.5455   -2.9578    0.0000 C   0  0  0  0  0  0  0  0  0  0  0  0
  -13.0423   -2.8622    0.0000 C   0  0  0  0  0  0  0  0  0  0  0  0
  -11.3796   -0.3650    0.0000 C   0  0  0  0  0  0  0  0  0  0  0  0
   -7.0103    2.0608    0.0000 C   0  0  0  0  0  0  0  0  0  0  0  0
   -6.3003    3.3820    0.0000 C   0  0  0  0  0  0  0  0  0  0  0  0
   -7.0897    4.6579    0.0000 C   0  0  0  0  0  0  0  0  0  0  0  0
   -8.5888    4.6120    0.0000 O   0  0  0  0  0  0  0  0  0  0  0  0
   -6.3792    5.9790    0.0000 N   0  0  0  0  0  0  0  0  0  0  0  0
   -1.7742    1.0220    0.0000 C   0  0  0  0  0  0  0  0  0  0  0  0
   -0.2789    1.1381    0.0000 C   0  0  0  0  0  0  0  0  0  0  0  0
    0.3685    2.4916    0.0000 O   0  0  0  0  0  0  0  0  0  0  0  0
    0.5699   -0.0987    0.0000 N   0  0  0  0  0  0  0  0  0  0  0  0
    0.2483   -3.8131    0.0000 C   0  0  0  0  0  0  0  0  0  0  0  0
    0.7392   -2.3955    0.0000 O   0  0  0  0  0  0  0  0  0  0  0  0
    1.2301   -4.9470    0.0000 N   0  0  0  0  0  0  0  0  0  0  0  0
    0.8900   -6.4079    0.0000 C   0  0  0  0  0  0  0  0  0  0  0  0
    2.1744   -7.1827    0.0000 C   0  0  0  0  0  0  0  0  0  0  0  0
    3.3081   -6.2006    0.0000 C   0  0  0  0  0  0  0  0  0  0  0  0
    2.7246   -4.8188    0.0000 C   0  0  0  0  0  0  0  0  0  0  0  0
    3.4997   -3.5347    0.0000 C   0  0  0  0  0  0  0  0  0  0  0  0
    2.7749   -2.2212    0.0000 O   0  0  0  0  0  0  0  0  0  0  0  0
    4.9996   -3.5634    0.0000 N   0  0  0  0  0  0  0  0  0  0  0  0
    5.7743   -2.2791    0.0000 C   0  0  0  0  0  0  0  0  0  0  0  0
    5.0495   -0.9658    0.0000 C   0  0  0  0  0  0  0  0  0  0  0  0
    5.8245    0.3185    0.0000 C   0  0  0  0  0  0  0  0  0  0  0  0
    7.3240    0.2893    0.0000 C   0  0  0  0  0  0  0  0  0  0  0  0
    5.0997    1.6315    0.0000 C   0  0  0  0  0  0  0  0  0  0  0  0
    7.2741   -2.3083    0.0000 C   0  0  0  0  0  0  0  0  0  0  0  0
    8.0488   -1.0240    0.0000 O   0  0  0  0  0  0  0  0  0  0  0  0
    7.9989   -3.6216    0.0000 N   0  0  0  0  0  0  0  0  0  0  0  0
    9.4984   -3.6503    0.0000 C   0  0  0  0  0  0  0  0  0  0  0  0
   10.2232   -4.9638    0.0000 C   0  0  0  0  0  0  0  0  0  0  0  0
   11.7231   -4.9928    0.0000 O   0  0  0  0  0  0  0  0  0  0  0  0
    9.4485   -6.2479    0.0000 N   0  0  0  0  0  0  0  0  0  0  0  0
  2  1  1  0  0  0  0
  1 26  1  0  0  0  0
  3  2  1  0  0  0  0
  4  3  1  0  0  0  0
  5  4  1  0  0  0  0
  4 48  1  0  0  0  0
  6  5  1  0  0  0  0
  6  7  2  0  0  0  0
  8  6  1  0  0  0  0
  9  8  1  0  0  0  0
  8 44  1  0  0  0  0
 10  9  1  0  0  0  0
 10 11  2  0  0  0  0
 12 10  1  0  0  0  0
 13 12  1  0  0  0  0
 12 39  1  0  0  0  0
 14 13  1  0  0  0  0
 14 15  2  0  0  0  0
 16 14  1  0  0  0  0
 17 16  1  0  0  0  0
 16 35  1  0  0  0  0
 18 17  1  0  0  0  0
 18 19  2  0  0  0  0
 20 18  1  0  0  0  0
 21 20  1  0  0  0  0
 20 27  1  0  0  0  0
 22 21  1  0  0  0  0
 22 23  2  0  0  0  0
 24 22  1  0  0  0  0
 24 25  1  0  0  0  0
 26 24  1  0  0  0  0
 27 28  1  0  0  0  0
 29 28  2  0  0  0  0
 28 34  1  0  0  0  0
 30 29  1  0  0  0  0
 31 30  2  0  0  0  0
 31 32  1  0  0  0  0
 33 31  1  0  0  0  0
 34 33  2  0  0  0  0
 35 36  1  0  0  0  0
 35 38  1  0  0  0  0
 36 37  1  0  0  0  0
 39 40  1  0  0  0  0
 40 41  1  0  0  0  0
 41 42  2  0  0  0  0
 41 43  1  0  0  0  0
 44 45  1  0  0  0  0
 45 46  2  0  0  0  0
 45 47  1  0  0  0  0
 48 49  2  0  0  0  0
 48 50  1  0  0  0  0
 51 50  1  0  0  0  0
 50 54  1  0  0  0  0
 52 51  1  0  0  0  0
 53 52  1  0  0  0  0
 54 53  1  0  0  0  0
 54 55  1  0  0  0  0
 55 56  2  0  0  0  0
 55 57  1  0  0  0  0
 57 58  1  0  0  0  0
 58 59  1  0  0  0  0
 58 63  1  0  0  0  0
 59 60  1  0  0  0  0
 60 61  1  0  0  0  0
 60 62  1  0  0  0  0
 63 64  2  0  0  0  0
 63 65  1  0  0  0  0
 65 66  1  0  0  0  0
 66 67  1  0  0  0  0
 67 68  2  0  0  0  0
 67 69  1  0  0  0  0
M  END
> <Inchi_key>
XNOPRXBHLZRZKH-UHFFFAOYSA-N

> <Source>
Kotsampasakou

> <ID>
EK0398

> <H_MFHB>


> <CAS>


> <Cholestasis>
0

> <Name>
oxytocin

> <Class>
0


$$$$