

  -INDIGO-08031710012D

  6  5  0  0  0  0  0  0  0  0999 V2000
   -0.0066    0.0245    0.0000 C   0  0  0  0  0  0  0  0  0  0  0  0
    1.2925    0.7745    0.0000 N   0  0  0  0  0  0  0  0  0  0  0  0
    1.2925    2.2745    0.0000 C   0  0  0  0  0  0  0  0  0  0  0  0
    2.5915    0.0245    0.0000 C   0  0  0  0  0  0  0  0  0  0  0  0
    3.8905    0.7745    0.0000 C   0  0  0  0  0  0  0  0  0  0  0  0
    5.1896    0.0245    0.0000 O   0  0  0  0  0  0  0  0  0  0  0  0
  1  2  1  0  0  0  0
  2  3  1  0  0  0  0
  2  4  1  0  0  0  0
  4  5  1  0  0  0  0
  5  6  1  0  0  0  0
M  END
> <Inchi_key>
UEEJHVSXFDXPFK-UHFFFAOYSA-N

> <Source>
Mulliner

> <ID>
HT2376

> <H_MFHB>
0

> <CAS>
108-01-0

> <Cholestasis>


> <Name>
deanol

> <Class>
0


$$$$