

  -INDIGO-08031710012D

 21 24  0  0  0  0  0  0  0  0999 V2000
    5.5582   -0.2682    0.0000 C   0  0  0  0  0  0  0  0  0  0  0  0
    4.7030    0.9642    0.0000 C   0  0  0  0  0  0  0  0  0  0  0  0
    3.9476   -0.3317    0.0000 C   0  0  0  0  0  0  0  0  0  0  0  0
    2.4476   -0.3254    0.0000 C   0  0  0  0  0  0  0  0  0  0  0  0
    1.7031    0.9768    0.0000 C   0  0  0  0  0  0  0  0  0  0  0  0
    2.4586    2.2727    0.0000 C   0  0  0  0  0  0  0  0  0  0  0  0
    1.7140    3.5748    0.0000 C   0  0  0  0  0  0  0  0  0  0  0  0
    0.2139    3.5812    0.0000 C   0  0  0  0  0  0  0  0  0  0  0  0
   -0.5415    2.2853    0.0000 C   0  0  0  0  0  0  0  0  0  0  0  0
   -2.0415    2.2916    0.0000 C   0  0  0  0  0  0  0  0  0  0  0  0
   -2.7969    0.9957    0.0000 C   0  0  0  0  0  0  0  0  0  0  0  0
   -2.0524   -0.3064    0.0000 C   0  0  0  0  0  0  0  0  0  0  0  0
   -0.5524   -0.3128    0.0000 C   0  0  0  0  0  0  0  0  0  0  0  0
    0.2032    0.9831    0.0000 C   0  0  0  0  0  0  0  0  0  0  0  0
    3.9585    2.2663    0.0000 C   0  0  0  0  0  0  0  0  0  0  0  0
    4.9670    3.3768    0.0000 C   0  0  0  0  0  0  0  0  0  0  0  0
    6.3346    2.7609    0.0000 C   0  0  0  0  0  0  0  0  0  0  0  0
    6.1717    1.2698    0.0000 C   0  0  0  0  0  0  0  0  0  0  0  0
    6.6539   -0.1505    0.0000 O   0  0  0  0  0  0  0  0  0  0  0  0
    7.6521    1.0289    0.0000 C   0  0  0  0  0  0  0  0  0  0  0  0
    9.1326    0.7881    0.0000 C   0  0  0  0  0  0  0  0  0  0  0  0
  1  2  1  0  0  0  0
  3  2  1  0  0  0  0
 15  2  1  0  0  0  0
  2 18  1  0  0  0  0
  4  3  1  0  0  0  0
  5  4  1  0  0  0  0
  5  6  1  0  0  0  0
 14  5  1  0  0  0  0
  6  7  1  0  0  0  0
 15  6  1  0  0  0  0
  7  8  1  0  0  0  0
  8  9  1  0  0  0  0
 10  9  2  0  0  0  0
  9 14  1  0  0  0  0
 11 10  1  0  0  0  0
 12 11  1  0  0  0  0
 13 12  1  0  0  0  0
 14 13  1  0  0  0  0
 16 15  1  0  0  0  0
 17 16  1  0  0  0  0
 18 17  1  0  0  0  0
 18 19  1  0  0  0  0
 18 20  1  0  0  0  0
 20 21  3  0  0  0  0
M  END
> <Inchi_key>
YNVGQYHLRCDXFQ-UHFFFAOYSA-N

> <Source>
Mulliner

> <ID>
HT3263

> <H_MFHB>
0

> <CAS>


> <Cholestasis>


> <Name>


> <Class>
0


$$$$