
  -INDIGO-08031710012D

 51 55  0  0  0  0  0  0  0  0999 V2000
    5.5673   21.3209    0.0000 C   0  0  0  0  0  0  0  0  0  0  0  0
    4.2685   20.5708    0.0000 C   0  0  0  0  0  0  0  0  0  0  0  0
    4.2685   19.0708    0.0000 C   0  0  0  0  0  0  0  0  0  0  0  0
    2.9692   18.3209    0.0000 C   0  0  0  0  0  0  0  0  0  0  0  0
    2.9692   16.8210    0.0000 C   0  0  0  0  0  0  0  0  0  0  0  0
    1.6704   16.0708    0.0000 O   0  0  0  0  0  0  0  0  0  0  0  0
    4.2685   16.0708    0.0000 O   0  0  0  0  0  0  0  0  0  0  0  0
    4.2685   14.5709    0.0000 C   0  0  0  0  0  0  0  0  0  0  0  0
    5.5673   13.8210    0.0000 C   0  0  0  0  0  0  0  0  0  0  0  0
    6.8663   14.5709    0.0000 O   0  0  0  0  0  0  0  0  0  0  0  0
    5.5673   12.3208    0.0000 C   0  0  0  0  0  0  0  0  0  0  0  0
    4.2685   13.0709    0.0000 O   0  0  0  0  0  0  0  0  0  0  0  0
    4.8174   11.0218    0.0000 C   0  0  0  0  0  0  0  0  0  0  0  0
    5.5673    9.7228    0.0000 C   0  0  0  0  0  0  0  0  0  0  0  0
    4.8174    8.4238    0.0000 O   0  0  0  0  0  0  0  0  0  0  0  0
    3.3174    8.4238    0.0000 C   0  0  0  0  0  0  0  0  0  0  0  0
    2.5675    7.1248    0.0000 C   0  0  0  0  0  0  0  0  0  0  0  0
    1.0675    7.1248    0.0000 C   0  0  0  0  0  0  0  0  0  0  0  0
    0.3173    5.8256    0.0000 N   0  0  0  0  0  0  0  0  0  0  0  0
   -1.1827    5.8256    0.0000 C   0  0  0  0  0  0  0  0  0  0  0  0
   -1.9326    7.1248    0.0000 O   0  0  0  0  0  0  0  0  0  0  0  0
   -1.9326    4.5266    0.0000 C   0  0  0  0  0  0  0  0  0  0  0  0
   -0.6335    3.7767    0.0000 F   0  0  0  0  0  0  0  0  0  0  0  0
   -3.2316    5.2767    0.0000 F   0  0  0  0  0  0  0  0  0  0  0  0
   -2.6827    3.2276    0.0000 F   0  0  0  0  0  0  0  0  0  0  0  0
    0.3173    8.4238    0.0000 C   0  0  0  0  0  0  0  0  0  0  0  0
   -1.1827    8.4238    0.0000 O   0  0  0  0  0  0  0  0  0  0  0  0
    1.0675    9.7228    0.0000 C   0  0  0  0  0  0  0  0  0  0  0  0
    0.3173   11.0218    0.0000 C   0  0  0  0  0  0  0  0  0  0  0  0
    2.5675    9.7228    0.0000 O   0  0  0  0  0  0  0  0  0  0  0  0
    7.0673    9.7228    0.0000 C   0  0  0  0  0  0  0  0  0  0  0  0
    7.8174    8.4238    0.0000 C   0  0  0  0  0  0  0  0  0  0  0  0
    7.0673    7.1248    0.0000 O   0  0  0  0  0  0  0  0  0  0  0  0
    9.3175    8.4238    0.0000 C   0  0  0  0  0  0  0  0  0  0  0  0
   10.0673    7.1248    0.0000 C   0  0  0  0  0  0  0  0  0  0  0  0
    9.3175    5.8256    0.0000 O   0  0  0  0  0  0  0  0  0  0  0  0
   11.5674    7.1248    0.0000 C   0  0  0  0  0  0  0  0  0  0  0  0
   12.3175    5.8256    0.0000 C   0  0  0  0  0  0  0  0  0  0  0  0
   11.5674    4.5266    0.0000 O   0  0  0  0  0  0  0  0  0  0  0  0
   12.3175    3.2276    0.0000 C   0  0  0  0  0  0  0  0  0  0  0  0
   13.8175    5.8256    0.0000 C   0  0  0  0  0  0  0  0  0  0  0  0
   14.5674    7.1248    0.0000 C   0  0  0  0  0  0  0  0  0  0  0  0
   13.8175    8.4238    0.0000 C   0  0  0  0  0  0  0  0  0  0  0  0
   12.3175    8.4238    0.0000 C   0  0  0  0  0  0  0  0  0  0  0  0
   11.5674    9.7228    0.0000 C   0  0  0  0  0  0  0  0  0  0  0  0
   12.3175   11.0218    0.0000 O   0  0  0  0  0  0  0  0  0  0  0  0
   10.0673    9.7228    0.0000 C   0  0  0  0  0  0  0  0  0  0  0  0
    9.3175   11.0218    0.0000 C   0  0  0  0  0  0  0  0  0  0  0  0
   10.0673   12.3208    0.0000 O   0  0  0  0  0  0  0  0  0  0  0  0
    7.8174   11.0218    0.0000 C   0  0  0  0  0  0  0  0  0  0  0  0
    7.0673   12.3208    0.0000 C   0  0  0  0  0  0  0  0  0  0  0  0
  1  2  1  0  0  0  0
  2  3  1  0  0  0  0
  3  4  1  0  0  0  0
  4  5  1  0  0  0  0
  5  6  2  0  0  0  0
  5  7  1  0  0  0  0
  7  8  1  0  0  0  0
  8  9  1  0  0  0  0
  9 10  2  0  0  0  0
  9 11  1  0  0  0  0
 11 12  1  0  0  0  0
 13 11  1  0  0  0  0
 11 51  1  0  0  0  0
 14 13  1  0  0  0  0
 14 15  1  0  0  0  0
 31 14  1  0  0  0  0
 15 16  1  0  0  0  0
 17 16  1  0  0  0  0
 16 30  1  0  0  0  0
 18 17  1  0  0  0  0
 18 19  1  0  0  0  0
 26 18  1  0  0  0  0
 19 20  1  0  0  0  0
 20 21  2  0  0  0  0
 20 22  1  0  0  0  0
 22 23  1  0  0  0  0
 22 24  1  0  0  0  0
 22 25  1  0  0  0  0
 26 27  1  0  0  0  0
 28 26  1  0  0  0  0
 28 29  1  0  0  0  0
 30 28  1  0  0  0  0
 32 31  1  0  0  0  0
 31 50  2  0  0  0  0
 32 33  1  0  0  0  0
 34 32  2  0  0  0  0
 35 34  1  0  0  0  0
 34 47  1  0  0  0  0
 35 36  2  0  0  0  0
 37 35  1  0  0  0  0
 38 37  2  0  0  0  0
 37 44  1  0  0  0  0
 38 39  1  0  0  0  0
 41 38  1  0  0  0  0
 39 40  1  0  0  0  0
 42 41  2  0  0  0  0
 43 42  1  0  0  0  0
 44 43  2  0  0  0  0
 45 44  1  0  0  0  0
 45 46  2  0  0  0  0
 47 45  1  0  0  0  0
 48 47  2  0  0  0  0
 48 49  1  0  0  0  0
 50 48  1  0  0  0  0
 51 50  1  0  0  0  0
M  END
> <Inchi_key>
ZOCKGBMQLCSHFP-UHFFFAOYSA-N

> <Source>
Mulliner , Kotsampasakou

> <ID>
EK0562;HT2163

> <H_MFHB>
0

> <CAS>


> <Cholestasis>
0

> <Name>
valrubicin

> <Class>
0

$$$$