
  -INDIGO-08031710012D

 28 32  0  0  0  0  0  0  0  0999 V2000
   11.5821    3.8025    0.0000 N   0  0  0  0  0  0  0  0  0  0  0  0
   10.3740    2.9134    0.0000 C   0  0  0  0  0  0  0  0  0  0  0  0
    8.9446    3.3682    0.0000 C   0  0  0  0  0  0  0  0  0  0  0  0
    8.0703    2.1492    0.0000 N   0  0  0  0  0  0  0  0  0  0  0  0
    8.9595    0.9412    0.0000 C   0  0  0  0  0  0  0  0  0  0  0  0
   10.3832    1.4134    0.0000 C   0  0  0  0  0  0  0  0  0  0  0  0
   11.0018    0.0470    0.0000 C   0  0  0  0  0  0  0  0  0  0  0  0
   11.8759    1.2658    0.0000 C   0  0  0  0  0  0  0  0  0  0  0  0
    6.5704    2.1400    0.0000 C   0  0  0  0  0  0  0  0  0  0  0  0
    5.8283    0.8365    0.0000 C   0  0  0  0  0  0  0  0  0  0  0  0
    6.5862   -0.4579    0.0000 F   0  0  0  0  0  0  0  0  0  0  0  0
    4.3283    0.8273    0.0000 C   0  0  0  0  0  0  0  0  0  0  0  0
    3.5704    2.1216    0.0000 C   0  0  0  0  0  0  0  0  0  0  0  0
    2.0705    2.1126    0.0000 C   0  0  0  0  0  0  0  0  0  0  0  0
    1.3284    0.8090    0.0000 O   0  0  0  0  0  0  0  0  0  0  0  0
    1.3126    3.4069    0.0000 C   0  0  0  0  0  0  0  0  0  0  0  0
    2.0546    4.7106    0.0000 C   0  0  0  0  0  0  0  0  0  0  0  0
    3.5546    4.7198    0.0000 N   0  0  0  0  0  0  0  0  0  0  0  0
    4.2967    6.0234    0.0000 C   0  0  0  0  0  0  0  0  0  0  0  0
    5.5910    6.7813    0.0000 C   0  0  0  0  0  0  0  0  0  0  0  0
    4.2875    7.5233    0.0000 C   0  0  0  0  0  0  0  0  0  0  0  0
    3.5296    8.8178    0.0000 F   0  0  0  0  0  0  0  0  0  0  0  0
    4.3125    3.4253    0.0000 C   0  0  0  0  0  0  0  0  0  0  0  0
    5.8125    3.4345    0.0000 C   0  0  0  0  0  0  0  0  0  0  0  0
    6.5545    4.7381    0.0000 Cl  0  0  0  0  0  0  0  0  0  0  0  0
   -0.1874    3.3977    0.0000 C   0  0  0  0  0  0  0  0  0  0  0  0
   -0.9453    4.6922    0.0000 O   0  0  0  0  0  0  0  0  0  0  0  0
   -0.9295    2.0942    0.0000 O   0  0  0  0  0  0  0  0  0  0  0  0
  1  2  1  0  0  0  0
  3  2  1  0  0  0  0
  2  6  1  0  0  0  0
  4  3  1  0  0  0  0
  5  4  1  0  0  0  0
  4  9  1  0  0  0  0
  6  5  1  0  0  0  0
  7  6  1  0  0  0  0
  6  8  1  0  0  0  0
  8  7  1  0  0  0  0
 10  9  2  0  0  0  0
  9 24  1  0  0  0  0
 10 11  1  0  0  0  0
 12 10  1  0  0  0  0
 13 12  2  0  0  0  0
 14 13  1  0  0  0  0
 13 23  1  0  0  0  0
 14 15  2  0  0  0  0
 16 14  1  0  0  0  0
 17 16  2  0  0  0  0
 16 26  1  0  0  0  0
 18 17  1  0  0  0  0
 18 19  1  0  0  0  0
 23 18  1  0  0  0  0
 20 19  1  0  0  0  0
 19 21  1  0  0  0  0
 21 20  1  0  0  0  0
 21 22  1  0  0  0  0
 24 23  2  0  0  0  0
 24 25  1  0  0  0  0
 26 27  2  0  0  0  0
 26 28  1  0  0  0  0
M  END
> <Inchi_key>
PNUZDKCDAWUEGK-UHFFFAOYSA-N

> <Source>
Mulliner

> <ID>
HT1892

> <H_MFHB>
0

> <CAS>
127254-12-0

> <Cholestasis>


> <Name>
sitafloxacin

> <Class>
0

$$$$