
  -INDIGO-08031710012D

 10  9  0  0  0  0  0  0  0  0999 V2000
   -0.1123   -0.4191    0.0000 C   0  0  0  0  0  0  0  0  0  0  0  0
    1.1867   -1.1691    0.0000 N   0  0  0  0  0  0  0  0  0  0  0  0
    1.9367    0.1299    0.0000 C   0  0  0  0  0  0  0  0  0  0  0  0
    0.4367   -2.4682    0.0000 C   0  0  0  0  0  0  0  0  0  0  0  0
    2.4858   -1.9191    0.0000 C   0  0  0  0  0  0  0  0  0  0  0  0
    3.7849   -1.1691    0.0000 C   0  0  0  0  0  0  0  0  0  0  0  0
    5.0838   -1.9191    0.0000 O   0  0  0  0  0  0  0  0  0  0  0  0
    6.3829   -1.1691    0.0000 C   0  0  0  0  0  0  0  0  0  0  0  0
    6.3829    0.3309    0.0000 O   0  0  0  0  0  0  0  0  0  0  0  0
    7.6819   -1.9191    0.0000 N   0  0  0  0  0  0  0  0  0  0  0  0
  1  2  1  0  0  0  0
  2  3  1  0  0  0  0
  2  4  1  0  0  0  0
  2  5  1  0  0  0  0
  5  6  1  0  0  0  0
  6  7  1  0  0  0  0
  7  8  1  0  0  0  0
  8  9  2  0  0  0  0
  8 10  1  0  0  0  0
M  CHG  1   2   1
M  END
> <Inchi_key>
VPJXQGSRWJZDOB-UHFFFAOYSA-O

> <Source>
Mulliner

> <ID>
HT0370

> <H_MFHB>
0

> <CAS>


> <Cholestasis>


> <Name>
carbachol;carbamylcholine

> <Class>
0

$$$$