

  -INDIGO-08031710012D

 32 35  0  0  0  0  0  0  0  0999 V2000
    8.1072    3.5706    0.0000 C   0  0  0  0  0  0  0  0  0  0  0  0
    6.8324    2.7800    0.0000 C   0  0  0  0  0  0  0  0  0  0  0  0
    5.4435    3.3466    0.0000 C   0  0  0  0  0  0  0  0  0  0  0  0
    4.4755    2.2007    0.0000 C   0  0  0  0  0  0  0  0  0  0  0  0
    2.9762    2.1534    0.0000 C   0  0  0  0  0  0  0  0  0  0  0  0
    2.1857    3.4281    0.0000 C   0  0  0  0  0  0  0  0  0  0  0  0
    0.6864    3.3808    0.0000 C   0  0  0  0  0  0  0  0  0  0  0  0
   -0.0222    2.0588    0.0000 C   0  0  0  0  0  0  0  0  0  0  0  0
   -1.5215    2.0114    0.0000 C   0  0  0  0  0  0  0  0  0  0  0  0
   -2.2301    0.6894    0.0000 C   0  0  0  0  0  0  0  0  0  0  0  0
   -3.7294    0.6420    0.0000 O   0  0  0  0  0  0  0  0  0  0  0  0
   -1.4396   -0.5854    0.0000 C   0  0  0  0  0  0  0  0  0  0  0  0
    0.0597   -0.5380    0.0000 C   0  0  0  0  0  0  0  0  0  0  0  0
    0.7683    0.7840    0.0000 C   0  0  0  0  0  0  0  0  0  0  0  0
    1.5590   -0.4907    0.0000 C   0  0  0  0  0  0  0  0  0  0  0  0
    2.2676    0.8313    0.0000 C   0  0  0  0  0  0  0  0  0  0  0  0
    3.7670    0.8787    0.0000 F   0  0  0  0  0  0  0  0  0  0  0  0
    3.0584   -0.4434    0.0000 C   0  0  0  0  0  0  0  0  0  0  0  0
    2.3495   -1.7654    0.0000 O   0  0  0  0  0  0  0  0  0  0  0  0
    4.5574   -0.3961    0.0000 C   0  0  0  0  0  0  0  0  0  0  0  0
    5.2663    0.9260    0.0000 C   0  0  0  0  0  0  0  0  0  0  0  0
    6.1650   -0.2750    0.0000 C   0  0  0  0  0  0  0  0  0  0  0  0
    6.7227    1.2840    0.0000 C   0  0  0  0  0  0  0  0  0  0  0  0
    7.2558   -0.1182    0.0000 O   0  0  0  0  0  0  0  0  0  0  0  0
    8.2110    1.0962    0.0000 C   0  0  0  0  0  0  0  0  0  0  0  0
    9.1178    2.2911    0.0000 O   0  0  0  0  0  0  0  0  0  0  0  0
    8.7924   -0.2865    0.0000 C   0  0  0  0  0  0  0  0  0  0  0  0
   10.2807   -0.4743    0.0000 O   0  0  0  0  0  0  0  0  0  0  0  0
   10.8621   -1.8570    0.0000 P   0  0  0  0  0  0  0  0  0  0  0  0
    9.4793   -2.4385    0.0000 O   0  0  0  0  0  0  0  0  0  0  0  0
   12.2449   -1.2755    0.0000 O   0  0  0  0  0  0  0  0  0  0  0  0
   11.4437   -3.2397    0.0000 O   0  0  0  0  0  0  0  0  0  0  0  0
  1  2  1  0  0  0  0
  3  2  1  0  0  0  0
  2 23  1  0  0  0  0
  4  3  1  0  0  0  0
  5  4  1  0  0  0  0
  4 21  1  0  0  0  0
  6  5  1  0  0  0  0
  5 16  1  0  0  0  0
  7  6  1  0  0  0  0
  8  7  1  0  0  0  0
  9  8  2  0  0  0  0
  8 14  1  0  0  0  0
 10  9  1  0  0  0  0
 10 11  2  0  0  0  0
 12 10  1  0  0  0  0
 13 12  2  0  0  0  0
 14 13  1  0  0  0  0
 14 15  1  0  0  0  0
 16 14  1  0  0  0  0
 16 17  1  0  0  0  0
 18 16  1  0  0  0  0
 18 19  1  0  0  0  0
 20 18  1  0  0  0  0
 21 20  1  0  0  0  0
 21 22  1  0  0  0  0
 23 21  1  0  0  0  0
 23 24  1  0  0  0  0
 23 25  1  0  0  0  0
 25 26  2  0  0  0  0
 25 27  1  0  0  0  0
 27 28  1  0  0  0  0
 28 29  1  0  0  0  0
 29 30  2  0  0  0  0
 29 31  1  0  0  0  0
 29 32  1  0  0  0  0
M  END
> <Inchi_key>
VQODGRNSFPNSQE-UHFFFAOYSA-N

> <Source>
Mulliner

> <ID>
HT0271

> <H_MFHB>
0

> <CAS>
312-93-6;151-73-5

> <Cholestasis>


> <Name>
betamethasone sodium phosphate;dexamethasone sodium phosphate

> <Class>
0


$$$$