

  -INDIGO-08031710012D

 21 23  0  0  0  0  0  0  0  0999 V2000
    2.4231   -2.4352    0.0000 O   0  0  0  0  0  0  0  0  0  0  0  0
    1.6733   -1.1362    0.0000 C   0  0  0  0  0  0  0  0  0  0  0  0
    2.9723   -0.3862    0.0000 C   0  0  0  0  0  0  0  0  0  0  0  0
    4.2712   -1.1362    0.0000 C   0  0  0  0  0  0  0  0  0  0  0  0
    5.5702   -0.3862    0.0000 N   0  0  0  0  0  0  0  0  0  0  0  0
    5.7271    1.1056    0.0000 C   0  0  0  0  0  0  0  0  0  0  0  0
    7.1943    1.4174    0.0000 C   0  0  0  0  0  0  0  0  0  0  0  0
    7.9443    0.1185    0.0000 C   0  0  0  0  0  0  0  0  0  0  0  0
    6.9406   -0.9963    0.0000 C   0  0  0  0  0  0  0  0  0  0  0  0
    0.9232    0.1629    0.0000 C   0  0  0  0  0  0  0  0  0  0  0  0
   -0.5768    0.1629    0.0000 C   0  0  0  0  0  0  0  0  0  0  0  0
   -1.3269    1.4619    0.0000 C   0  0  0  0  0  0  0  0  0  0  0  0
   -0.5768    2.7610    0.0000 C   0  0  0  0  0  0  0  0  0  0  0  0
    0.9232    2.7610    0.0000 C   0  0  0  0  0  0  0  0  0  0  0  0
    1.6733    1.4619    0.0000 C   0  0  0  0  0  0  0  0  0  0  0  0
    0.3741   -1.8862    0.0000 C   0  0  0  0  0  0  0  0  0  0  0  0
    0.3741   -3.3862    0.0000 C   0  0  0  0  0  0  0  0  0  0  0  0
   -0.9249   -4.1362    0.0000 C   0  0  0  0  0  0  0  0  0  0  0  0
   -2.2240   -3.3862    0.0000 C   0  0  0  0  0  0  0  0  0  0  0  0
   -2.2240   -1.8862    0.0000 C   0  0  0  0  0  0  0  0  0  0  0  0
   -0.9249   -1.1362    0.0000 C   0  0  0  0  0  0  0  0  0  0  0  0
  1  2  1  0  0  0  0
  2  3  1  0  0  0  0
  2 10  1  0  0  0  0
  2 16  1  0  0  0  0
  3  4  1  0  0  0  0
  4  5  1  0  0  0  0
  6  5  1  0  0  0  0
  5  9  1  0  0  0  0
  7  6  1  0  0  0  0
  8  7  1  0  0  0  0
  9  8  1  0  0  0  0
 11 10  1  0  0  0  0
 10 15  1  0  0  0  0
 12 11  1  0  0  0  0
 13 12  1  0  0  0  0
 14 13  1  0  0  0  0
 15 14  1  0  0  0  0
 17 16  2  0  0  0  0
 16 21  1  0  0  0  0
 18 17  1  0  0  0  0
 19 18  2  0  0  0  0
 20 19  1  0  0  0  0
 21 20  2  0  0  0  0
M  END
> <Inchi_key>
WYDUSKDSKCASEF-UHFFFAOYSA-N

> <Source>
Mulliner , Kotsampasakou

> <ID>
EK0445;HT1748

> <H_MFHB>
0

> <CAS>


> <Cholestasis>
0

> <Name>
procyclidine hydrochloride;procyclidine

> <Class>
0


$$$$