

  -INDIGO-08031710012D

 19 20  0  0  0  0  0  0  0  0999 V2000
   -0.0314    0.1230    0.0000 C   0  0  0  0  0  0  0  0  0  0  0  0
    1.2853    0.8417    0.0000 C   0  0  0  0  0  0  0  0  0  0  0  0
    2.5659    0.0607    0.0000 C   0  0  0  0  0  0  0  0  0  0  0  0
    3.8826    0.7794    0.0000 C   0  0  0  0  0  0  0  0  0  0  0  0
    3.9186    2.2789    0.0000 C   0  0  0  0  0  0  0  0  0  0  0  0
    2.6379    3.0599    0.0000 C   0  0  0  0  0  0  0  0  0  0  0  0
    1.3212    2.3412    0.0000 C   0  0  0  0  0  0  0  0  0  0  0  0
    5.2352    2.9976    0.0000 C   0  0  0  0  0  0  0  0  0  0  0  0
    5.2712    4.4972    0.0000 O   0  0  0  0  0  0  0  0  0  0  0  0
    6.5159    2.2167    0.0000 C   0  0  0  0  0  0  0  0  0  0  0  0
    6.6369    0.7215    0.0000 C   0  0  0  0  0  0  0  0  0  0  0  0
    8.0961    0.3746    0.0000 C   0  0  0  0  0  0  0  0  0  0  0  0
    8.8772    1.6553    0.0000 C   0  0  0  0  0  0  0  0  0  0  0  0
   10.3722    1.7762    0.0000 C   0  0  0  0  0  0  0  0  0  0  0  0
   11.2246    0.5419    0.0000 C   0  0  0  0  0  0  0  0  0  0  0  0
   12.7197    0.6629    0.0000 O   0  0  0  0  0  0  0  0  0  0  0  0
   10.5818   -0.8134    0.0000 O   0  0  0  0  0  0  0  0  0  0  0  0
    7.9004    2.7937    0.0000 N   0  0  0  0  0  0  0  0  0  0  0  0
    8.2473    4.2531    0.0000 C   0  0  0  0  0  0  0  0  0  0  0  0
  1  2  1  0  0  0  0
  3  2  2  0  0  0  0
  2  7  1  0  0  0  0
  4  3  1  0  0  0  0
  5  4  2  0  0  0  0
  6  5  1  0  0  0  0
  5  8  1  0  0  0  0
  7  6  2  0  0  0  0
  8  9  2  0  0  0  0
  8 10  1  0  0  0  0
 11 10  2  0  0  0  0
 10 18  1  0  0  0  0
 12 11  1  0  0  0  0
 13 12  2  0  0  0  0
 13 14  1  0  0  0  0
 18 13  1  0  0  0  0
 14 15  1  0  0  0  0
 15 16  2  0  0  0  0
 15 17  1  0  0  0  0
 18 19  1  0  0  0  0
M  END
> <Inchi_key>
UPSPUYADGBWSHF-UHFFFAOYSA-N

> <Source>
Mulliner

> <ID>
HT2084

> <H_MFHB>
0

> <CAS>


> <Cholestasis>


> <Name>
tolmetin sodium;tolmetin

> <Class>
0


$$$$