

  -INDIGO-08031710012D

 18 20  0  0  0  0  0  0  0  0999 V2000
    0.0686    5.2647    0.0000 O   0  0  0  0  0  0  0  0  0  0  0  0
    0.0686    3.7647    0.0000 C   0  0  0  0  0  0  0  0  0  0  0  0
   -1.2304    3.0147    0.0000 C   0  0  0  0  0  0  0  0  0  0  0  0
   -1.2304    1.5147    0.0000 C   0  0  0  0  0  0  0  0  0  0  0  0
    0.0686    0.7647    0.0000 C   0  0  0  0  0  0  0  0  0  0  0  0
    1.3675    1.5147    0.0000 C   0  0  0  0  0  0  0  0  0  0  0  0
    2.6668    0.7647    0.0000 C   0  0  0  0  0  0  0  0  0  0  0  0
    2.6668   -0.7353    0.0000 O   0  0  0  0  0  0  0  0  0  0  0  0
    3.9657    1.5147    0.0000 C   0  0  0  0  0  0  0  0  0  0  0  0
    5.2647    0.7647    0.0000 C   0  0  0  0  0  0  0  0  0  0  0  0
    6.5638    1.5147    0.0000 C   0  0  0  0  0  0  0  0  0  0  0  0
    6.5638    3.0147    0.0000 C   0  0  0  0  0  0  0  0  0  0  0  0
    5.2647    3.7647    0.0000 C   0  0  0  0  0  0  0  0  0  0  0  0
    5.2647    5.2647    0.0000 O   0  0  0  0  0  0  0  0  0  0  0  0
    3.9657    3.0147    0.0000 C   0  0  0  0  0  0  0  0  0  0  0  0
    2.6668    3.7647    0.0000 C   0  0  0  0  0  0  0  0  0  0  0  0
    2.6668    5.2647    0.0000 O   0  0  0  0  0  0  0  0  0  0  0  0
    1.3675    3.0147    0.0000 C   0  0  0  0  0  0  0  0  0  0  0  0
  1  2  1  0  0  0  0
  3  2  2  0  0  0  0
  2 18  1  0  0  0  0
  4  3  1  0  0  0  0
  5  4  2  0  0  0  0
  6  5  1  0  0  0  0
  7  6  1  0  0  0  0
  6 18  2  0  0  0  0
  7  8  2  0  0  0  0
  9  7  1  0  0  0  0
 10  9  2  0  0  0  0
  9 15  1  0  0  0  0
 11 10  1  0  0  0  0
 12 11  2  0  0  0  0
 13 12  1  0  0  0  0
 13 14  1  0  0  0  0
 15 13  2  0  0  0  0
 16 15  1  0  0  0  0
 16 17  2  0  0  0  0
 18 16  1  0  0  0  0
M  END
> <Inchi_key>
QBPFLULOKWLNNW-UHFFFAOYSA-N

> <Source>
Mulliner

> <ID>
HT0589

> <H_MFHB>
0

> <CAS>


> <Cholestasis>


> <Name>
dantron;danthron

> <Class>
0


$$$$