

  -INDIGO-08031710012D

  8  7  0  0  0  0  0  0  0  0999 V2000
   -0.4216   -1.5736    0.0000 C   0  0  0  0  0  0  0  0  0  0  0  0
    0.8774   -2.3236    0.0000 C   0  0  0  0  0  0  0  0  0  0  0  0
    2.1764   -1.5736    0.0000 C   0  0  0  0  0  0  0  0  0  0  0  0
    3.4756   -2.3236    0.0000 C   0  0  0  0  0  0  0  0  0  0  0  0
    4.7744   -1.5736    0.0000 C   0  0  0  0  0  0  0  0  0  0  0  0
    6.0736   -2.3236    0.0000 O   0  0  0  0  0  0  0  0  0  0  0  0
    7.3726   -1.5736    0.0000 N   0  0  0  0  0  0  0  0  0  0  0  0
    8.6716   -2.3236    0.0000 O   0  0  0  0  0  0  0  0  0  0  0  0
  1  2  1  0  0  0  0
  2  3  1  0  0  0  0
  3  4  1  0  0  0  0
  4  5  1  0  0  0  0
  5  6  1  0  0  0  0
  6  7  1  0  0  0  0
  7  8  2  0  0  0  0
M  END
> <Inchi_key>
CSDTZUBPSYWZDX-UHFFFAOYSA-N

> <Source>
Mulliner

> <ID>
HT0156

> <H_MFHB>
0

> <CAS>


> <Cholestasis>


> <Name>
amyl nitrite

> <Class>
0


$$$$