

  -INDIGO-08031710012D

 37 41  0  0  0  0  0  0  0  0999 V2000
    1.0294   -2.3950    0.0000 C   0  0  0  0  0  0  0  0  0  0  0  0
    2.3132   -1.6193    0.0000 C   0  0  0  0  0  0  0  0  0  0  0  0
    3.6953   -2.2022    0.0000 C   0  0  0  0  0  0  0  0  0  0  0  0
    4.6769   -1.0679    0.0000 C   0  0  0  0  0  0  0  0  0  0  0  0
    6.1765   -1.0383    0.0000 C   0  0  0  0  0  0  0  0  0  0  0  0
    6.9521   -2.3223    0.0000 C   0  0  0  0  0  0  0  0  0  0  0  0
    8.4517   -2.2925    0.0000 C   0  0  0  0  0  0  0  0  0  0  0  0
    9.2272   -3.5765    0.0000 F   0  0  0  0  0  0  0  0  0  0  0  0
    9.1760   -0.9789    0.0000 C   0  0  0  0  0  0  0  0  0  0  0  0
   10.6756   -0.9493    0.0000 C   0  0  0  0  0  0  0  0  0  0  0  0
   11.3999    0.3642    0.0000 C   0  0  0  0  0  0  0  0  0  0  0  0
   12.8995    0.3940    0.0000 O   0  0  0  0  0  0  0  0  0  0  0  0
   10.6243    1.6482    0.0000 C   0  0  0  0  0  0  0  0  0  0  0  0
    9.1247    1.6186    0.0000 C   0  0  0  0  0  0  0  0  0  0  0  0
    8.4004    0.3051    0.0000 C   0  0  0  0  0  0  0  0  0  0  0  0
    7.6249    1.5890    0.0000 C   0  0  0  0  0  0  0  0  0  0  0  0
    6.9008    0.2755    0.0000 C   0  0  0  0  0  0  0  0  0  0  0  0
    5.4010    0.2457    0.0000 F   0  0  0  0  0  0  0  0  0  0  0  0
    6.1250    1.5593    0.0000 C   0  0  0  0  0  0  0  0  0  0  0  0
    6.8493    2.8729    0.0000 O   0  0  0  0  0  0  0  0  0  0  0  0
    4.6254    1.5297    0.0000 C   0  0  0  0  0  0  0  0  0  0  0  0
    3.9013    0.2161    0.0000 C   0  0  0  0  0  0  0  0  0  0  0  0
    3.0167    1.4275    0.0000 C   0  0  0  0  0  0  0  0  0  0  0  0
    2.4404   -0.1247    0.0000 C   0  0  0  0  0  0  0  0  0  0  0  0
    1.9242    1.2836    0.0000 O   0  0  0  0  0  0  0  0  0  0  0  0
    2.8858    2.4350    0.0000 C   0  0  0  0  0  0  0  0  0  0  0  0
    4.3635    2.1778    0.0000 O   0  0  0  0  0  0  0  0  0  0  0  0
    2.3693    3.8432    0.0000 C   0  0  0  0  0  0  0  0  0  0  0  0
    3.2053    5.0887    0.0000 O   0  0  0  0  0  0  0  0  0  0  0  0
    2.2792    6.2686    0.0000 C   0  0  0  0  0  0  0  0  0  0  0  0
    0.8709    5.7523    0.0000 C   0  0  0  0  0  0  0  0  0  0  0  0
    0.9266    4.2535    0.0000 C   0  0  0  0  0  0  0  0  0  0  0  0
    0.9546    0.0806    0.0000 C   0  0  0  0  0  0  0  0  0  0  0  0
    0.3894    1.4701    0.0000 O   0  0  0  0  0  0  0  0  0  0  0  0
    0.0338   -1.1036    0.0000 S   0  0  0  0  0  0  0  0  0  0  0  0
   -1.4521   -0.8983    0.0000 C   0  0  0  0  0  0  0  0  0  0  0  0
   -2.3728   -2.0823    0.0000 F   0  0  0  0  0  0  0  0  0  0  0  0
  1  2  1  0  0  0  0
  3  2  1  0  0  0  0
  2 24  1  0  0  0  0
  4  3  1  0  0  0  0
  5  4  1  0  0  0  0
  4 22  1  0  0  0  0
  6  5  1  0  0  0  0
  5 17  1  0  0  0  0
  7  6  1  0  0  0  0
  7  8  1  0  0  0  0
  9  7  1  0  0  0  0
 10  9  2  0  0  0  0
  9 15  1  0  0  0  0
 11 10  1  0  0  0  0
 11 12  2  0  0  0  0
 13 11  1  0  0  0  0
 14 13  2  0  0  0  0
 15 14  1  0  0  0  0
 15 16  1  0  0  0  0
 17 15  1  0  0  0  0
 17 18  1  0  0  0  0
 19 17  1  0  0  0  0
 19 20  1  0  0  0  0
 21 19  1  0  0  0  0
 22 21  1  0  0  0  0
 22 23  1  0  0  0  0
 24 22  1  0  0  0  0
 24 25  1  0  0  0  0
 24 33  1  0  0  0  0
 25 26  1  0  0  0  0
 26 27  2  0  0  0  0
 26 28  1  0  0  0  0
 29 28  1  0  0  0  0
 28 32  2  0  0  0  0
 30 29  1  0  0  0  0
 31 30  2  0  0  0  0
 32 31  1  0  0  0  0
 33 34  2  0  0  0  0
 33 35  1  0  0  0  0
 35 36  1  0  0  0  0
 36 37  1  0  0  0  0
M  END
> <Inchi_key>
XTULMSXFIHGYFS-UHFFFAOYSA-N

> <Source>
Mulliner

> <ID>
HT0924

> <H_MFHB>
0

> <CAS>


> <Cholestasis>


> <Name>
fluticasone furoate

> <Class>
0


$$$$