
  -INDIGO-08031709442D

 20 21  0  0  0  0  0  0  0  0999 V2000
   -0.1078    2.7100    0.0000 F   0  0  0  0  0  0  0  0  0  0  0  0
    1.1950    1.9666    0.0000 C   0  0  0  0  0  0  0  0  0  0  0  0
    0.4516    0.6638    0.0000 F   0  0  0  0  0  0  0  0  0  0  0  0
    1.9384    3.2694    0.0000 F   0  0  0  0  0  0  0  0  0  0  0  0
    2.4978    1.2232    0.0000 C   0  0  0  0  0  0  0  0  0  0  0  0
    3.7931    1.9798    0.0000 C   0  0  0  0  0  0  0  0  0  0  0  0
    5.0960    1.2364    0.0000 N   0  0  0  0  0  0  0  0  0  0  0  0
    6.3911    1.9930    0.0000 C   0  0  0  0  0  0  0  0  0  0  0  0
    7.7644    1.3899    0.0000 O   0  0  0  0  0  0  0  0  0  0  0  0
    8.7625    2.5097    0.0000 C   0  0  0  0  0  0  0  0  0  0  0  0
   10.2551    2.3605    0.0000 C   0  0  0  0  0  0  0  0  0  0  0  0
   10.8722    0.9934    0.0000 O   0  0  0  0  0  0  0  0  0  0  0  0
    8.0059    3.8049    0.0000 C   0  0  0  0  0  0  0  0  0  0  0  0
    8.6092    5.1784    0.0000 O   0  0  0  0  0  0  0  0  0  0  0  0
    6.5403    3.4856    0.0000 C   0  0  0  0  0  0  0  0  0  0  0  0
    5.1037   -0.2635    0.0000 C   0  0  0  0  0  0  0  0  0  0  0  0
    6.4065   -1.0069    0.0000 O   0  0  0  0  0  0  0  0  0  0  0  0
    3.8084   -1.0201    0.0000 N   0  0  0  0  0  0  0  0  0  0  0  0
    2.5056   -0.2768    0.0000 C   0  0  0  0  0  0  0  0  0  0  0  0
    1.2103   -1.0334    0.0000 O   0  0  0  0  0  0  0  0  0  0  0  0
  1  2  1  0  0  0  0
  2  3  1  0  0  0  0
  2  4  1  0  0  0  0
  2  5  1  0  0  0  0
  6  5  2  0  0  0  0
  5 19  1  0  0  0  0
  7  6  1  0  0  0  0
  7  8  1  0  0  0  0
 16  7  1  0  0  0  0
  9  8  1  0  0  0  0
  8 15  1  0  0  0  0
 10  9  1  0  0  0  0
 10 11  1  0  0  0  0
 13 10  1  0  0  0  0
 11 12  1  0  0  0  0
 13 14  1  0  0  0  0
 15 13  1  0  0  0  0
 16 17  2  0  0  0  0
 18 16  1  0  0  0  0
 19 18  1  0  0  0  0
 19 20  2  0  0  0  0
M  END
> <Inchi_key>
VSQQQLOSPVPRAZ-UHFFFAOYSA-N

> <Source>
Kotsampasakou

> <ID>
EK0549

> <H_MFHB>


> <CAS>


> <Cholestasis>
0

> <Name>
trifluridine

> <Class>
0

$$$$