
  -INDIGO-08031710012D

 25 24  0  0  0  0  0  0  0  0999 V2000
    1.9733   10.8067    0.0000 C   0  0  0  0  0  0  0  0  0  0  0  0
    1.9733    9.3067    0.0000 C   0  0  0  0  0  0  0  0  0  0  0  0
    3.2722    8.5567    0.0000 C   0  0  0  0  0  0  0  0  0  0  0  0
    3.2722    7.0567    0.0000 C   0  0  0  0  0  0  0  0  0  0  0  0
    1.9733    6.3067    0.0000 O   0  0  0  0  0  0  0  0  0  0  0  0
    4.5713    6.3067    0.0000 O   0  0  0  0  0  0  0  0  0  0  0  0
    4.5713    4.8067    0.0000 C   0  0  0  0  0  0  0  0  0  0  0  0
    3.2722    4.0567    0.0000 C   0  0  0  0  0  0  0  0  0  0  0  0
    3.2722    2.5567    0.0000 O   0  0  0  0  0  0  0  0  0  0  0  0
    1.9733    1.8067    0.0000 C   0  0  0  0  0  0  0  0  0  0  0  0
    0.6742    2.5567    0.0000 O   0  0  0  0  0  0  0  0  0  0  0  0
    1.9733    0.3067    0.0000 C   0  0  0  0  0  0  0  0  0  0  0  0
    0.6742   -0.4433    0.0000 C   0  0  0  0  0  0  0  0  0  0  0  0
    5.8704    4.0567    0.0000 C   0  0  0  0  0  0  0  0  0  0  0  0
    7.1695    4.8067    0.0000 O   0  0  0  0  0  0  0  0  0  0  0  0
    8.4684    4.0567    0.0000 P   0  0  0  0  0  0  0  0  0  0  0  0
    7.7185    2.7577    0.0000 O   0  0  0  0  0  0  0  0  0  0  0  0
    9.2185    5.3559    0.0000 O   0  0  0  0  0  0  0  0  0  0  0  0
    9.7675    3.3067    0.0000 O   0  0  0  0  0  0  0  0  0  0  0  0
   11.0666    4.0567    0.0000 C   0  0  0  0  0  0  0  0  0  0  0  0
   12.3657    3.3067    0.0000 C   0  0  0  0  0  0  0  0  0  0  0  0
   12.3657    1.8067    0.0000 N   0  0  0  0  0  0  0  0  0  0  0  0
   13.6646    4.0567    0.0000 C   0  0  0  0  0  0  0  0  0  0  0  0
   13.6646    5.5567    0.0000 O   0  0  0  0  0  0  0  0  0  0  0  0
   14.9637    3.3067    0.0000 O   0  0  0  0  0  0  0  0  0  0  0  0
  1  2  1  0  0  0  0
  2  3  1  0  0  0  0
  3  4  1  0  0  0  0
  4  5  2  0  0  0  0
  4  6  1  0  0  0  0
  6  7  1  0  0  0  0
  7  8  1  0  0  0  0
  7 14  1  0  0  0  0
  8  9  1  0  0  0  0
  9 10  1  0  0  0  0
 10 11  2  0  0  0  0
 10 12  1  0  0  0  0
 12 13  1  0  0  0  0
 14 15  1  0  0  0  0
 15 16  1  0  0  0  0
 16 17  2  0  0  0  0
 16 18  1  0  0  0  0
 16 19  1  0  0  0  0
 19 20  1  0  0  0  0
 20 21  1  0  0  0  0
 21 22  1  0  0  0  0
 21 23  1  0  0  0  0
 23 24  2  0  0  0  0
 23 25  1  0  0  0  0
M  END
> <Inchi_key>
UNJJBGNPUUVVFQ-UHFFFAOYSA-N

> <Source>
Mulliner

> <ID>
HT1664

> <H_MFHB>
0

> <CAS>


> <Cholestasis>


> <Name>
phosphatidylserine

> <Class>
0

$$$$