

  -INDIGO-08031710012D

 26 27  0  0  0  0  0  0  0  0999 V2000
   12.8654   -0.0000    0.0000 C   0  0  0  0  0  0  0  0  0  0  0  0
   11.3654   -0.0000    0.0000 C   0  0  0  0  0  0  0  0  0  0  0  0
   10.6154    1.2989    0.0000 O   0  0  0  0  0  0  0  0  0  0  0  0
    9.1154    1.2989    0.0000 C   0  0  0  0  0  0  0  0  0  0  0  0
    8.3654    2.5982    0.0000 C   0  0  0  0  0  0  0  0  0  0  0  0
    6.8654    2.5982    0.0000 C   0  0  0  0  0  0  0  0  0  0  0  0
    6.1154    3.8971    0.0000 C   0  0  0  0  0  0  0  0  0  0  0  0
    6.8654    5.1962    0.0000 C   0  0  0  0  0  0  0  0  0  0  0  0
    6.1154    6.4952    0.0000 C   0  0  0  0  0  0  0  0  0  0  0  0
    8.3654    5.1962    0.0000 N   0  0  0  0  0  0  0  0  0  0  0  0
    9.1154    3.8971    0.0000 C   0  0  0  0  0  0  0  0  0  0  0  0
   10.6154    3.8971    0.0000 C   0  0  0  0  0  0  0  0  0  0  0  0
    4.6154    3.8971    0.0000 C   0  0  0  0  0  0  0  0  0  0  0  0
    3.8654    2.5982    0.0000 O   0  0  0  0  0  0  0  0  0  0  0  0
    3.8654    5.1962    0.0000 O   0  0  0  0  0  0  0  0  0  0  0  0
    2.3654    5.1962    0.0000 C   0  0  0  0  0  0  0  0  0  0  0  0
    6.1154    1.2989    0.0000 C   0  0  0  0  0  0  0  0  0  0  0  0
    6.8654   -0.0000    0.0000 C   0  0  0  0  0  0  0  0  0  0  0  0
    6.1154   -1.2990    0.0000 C   0  0  0  0  0  0  0  0  0  0  0  0
    4.6154   -1.2990    0.0000 C   0  0  0  0  0  0  0  0  0  0  0  0
    3.8654   -0.0000    0.0000 C   0  0  0  0  0  0  0  0  0  0  0  0
    4.6154    1.2989    0.0000 C   0  0  0  0  0  0  0  0  0  0  0  0
    2.3654   -0.0000    0.0000 N   0  0  0  0  0  0  0  0  0  0  0  0
    1.6154   -1.2990    0.0000 O   0  0  0  0  0  0  0  0  0  0  0  0
    1.6154    1.2989    0.0000 O   0  0  0  0  0  0  0  0  0  0  0  0
    8.3654   -0.0000    0.0000 O   0  0  0  0  0  0  0  0  0  0  0  0
  1  2  1  0  0  0  0
  2  3  1  0  0  0  0
  3  4  1  0  0  0  0
  4  5  2  0  0  0  0
  4 26  1  0  0  0  0
  6  5  1  0  0  0  0
  5 11  1  0  0  0  0
  7  6  1  0  0  0  0
  6 17  1  0  0  0  0
  8  7  2  0  0  0  0
  7 13  1  0  0  0  0
  8  9  1  0  0  0  0
 10  8  1  0  0  0  0
 11 10  2  0  0  0  0
 11 12  1  0  0  0  0
 13 14  2  0  0  0  0
 13 15  1  0  0  0  0
 15 16  1  0  0  0  0
 18 17  2  0  0  0  0
 17 22  1  0  0  0  0
 19 18  1  0  0  0  0
 20 19  2  0  0  0  0
 21 20  1  0  0  0  0
 22 21  2  0  0  0  0
 21 23  1  0  0  0  0
 23 24  2  0  0  0  0
 23 25  1  0  0  0  0
M  CHG  2  23   1  25  -1
M  END
> <Inchi_key>
OYFHPBSUARUOQE-OBGWFSINSA-N

> <Source>
Mulliner

> <ID>
HT1505

> <H_MFHB>
0

> <CAS>


> <Cholestasis>


> <Name>
nitrendipine

> <Class>
0


$$$$