

  -INDIGO-08031710012D

 15 15  0  0  0  0  0  0  0  0999 V2000
    8.9000    1.2124    0.0000 C   0  0  0  0  0  0  0  0  0  0  0  0
    7.4001    1.2124    0.0000 C   0  0  0  0  0  0  0  0  0  0  0  0
    6.6500   -0.0866    0.0000 N   0  0  0  0  0  0  0  0  0  0  0  0
    7.4001   -1.3856    0.0000 C   0  0  0  0  0  0  0  0  0  0  0  0
    8.9000   -1.3856    0.0000 C   0  0  0  0  0  0  0  0  0  0  0  0
    5.1500   -0.0866    0.0000 C   0  0  0  0  0  0  0  0  0  0  0  0
    4.4001   -1.3856    0.0000 C   0  0  0  0  0  0  0  0  0  0  0  0
    4.4001    1.2124    0.0000 C   0  0  0  0  0  0  0  0  0  0  0  0
    5.1500    2.5115    0.0000 O   0  0  0  0  0  0  0  0  0  0  0  0
    2.9000    1.2124    0.0000 C   0  0  0  0  0  0  0  0  0  0  0  0
    2.1500    2.5115    0.0000 C   0  0  0  0  0  0  0  0  0  0  0  0
    0.6500    2.5115    0.0000 C   0  0  0  0  0  0  0  0  0  0  0  0
   -0.1000    1.2124    0.0000 C   0  0  0  0  0  0  0  0  0  0  0  0
    0.6500   -0.0866    0.0000 C   0  0  0  0  0  0  0  0  0  0  0  0
    2.1500   -0.0866    0.0000 C   0  0  0  0  0  0  0  0  0  0  0  0
  1  2  1  0  0  0  0
  2  3  1  0  0  0  0
  3  4  1  0  0  0  0
  3  6  1  0  0  0  0
  4  5  1  0  0  0  0
  6  7  1  0  0  0  0
  6  8  1  0  0  0  0
  8  9  2  0  0  0  0
  8 10  1  0  0  0  0
 11 10  2  0  0  0  0
 10 15  1  0  0  0  0
 12 11  1  0  0  0  0
 13 12  2  0  0  0  0
 14 13  1  0  0  0  0
 15 14  2  0  0  0  0
M  END
> <Inchi_key>
XXEPPPIWZFICOJ-UHFFFAOYSA-N

> <Source>
Mulliner , Kotsampasakou

> <ID>
EK0161;HT0656

> <H_MFHB>
0

> <CAS>


> <Cholestasis>
0

> <Name>
diethylpropion hydrochloride;diethylpropion

> <Class>
0


$$$$