
  -INDIGO-08031710012D

 15 15  0  0  0  0  0  0  0  0999 V2000
    9.3863   -2.7151    0.0000 C   0  0  0  0  0  0  0  0  0  0  0  0
    8.0873   -3.4651    0.0000 C   0  0  0  0  0  0  0  0  0  0  0  0
    6.7882   -2.7151    0.0000 C   0  0  0  0  0  0  0  0  0  0  0  0
    5.4892   -3.4651    0.0000 C   0  0  0  0  0  0  0  0  0  0  0  0
    4.1902   -2.7151    0.0000 C   0  0  0  0  0  0  0  0  0  0  0  0
    5.4892   -1.9651    0.0000 C   0  0  0  0  0  0  0  0  0  0  0  0
    5.4892   -0.4651    0.0000 C   0  0  0  0  0  0  0  0  0  0  0  0
    3.4402   -4.0141    0.0000 C   0  0  0  0  0  0  0  0  0  0  0  0
    4.1902   -5.3131    0.0000 O   0  0  0  0  0  0  0  0  0  0  0  0
    1.9403   -4.0141    0.0000 N   0  0  0  0  0  0  0  0  0  0  0  0
    1.1901   -2.7151    0.0000 C   0  0  0  0  0  0  0  0  0  0  0  0
   -0.3098   -2.7151    0.0000 O   0  0  0  0  0  0  0  0  0  0  0  0
    1.9403   -1.4160    0.0000 N   0  0  0  0  0  0  0  0  0  0  0  0
    3.4402   -1.4160    0.0000 C   0  0  0  0  0  0  0  0  0  0  0  0
    4.1902   -0.1170    0.0000 O   0  0  0  0  0  0  0  0  0  0  0  0
  1  2  1  0  0  0  0
  2  3  1  0  0  0  0
  3  4  1  0  0  0  0
  4  5  1  0  0  0  0
  5  6  1  0  0  0  0
  8  5  1  0  0  0  0
  5 14  1  0  0  0  0
  6  7  1  0  0  0  0
  8  9  2  0  0  0  0
 10  8  1  0  0  0  0
 11 10  1  0  0  0  0
 11 12  2  0  0  0  0
 13 11  1  0  0  0  0
 14 13  1  0  0  0  0
 14 15  2  0  0  0  0
M  END
> <Inchi_key>
STDBAQMTJLUMFW-UHFFFAOYSA-N

> <Source>
Mulliner

> <ID>
HT0336

> <H_MFHB>
0

> <CAS>


> <Cholestasis>


> <Name>
butethal

> <Class>
0

$$$$