

  -INDIGO-08031710012D

 20 20  0  0  0  0  0  0  0  0999 V2000
    0.3324   -6.5677    0.0000 O   0  0  0  0  0  0  0  0  0  0  0  0
    0.3324   -5.0677    0.0000 C   0  0  0  0  0  0  0  0  0  0  0  0
    1.6313   -4.3177    0.0000 C   0  0  0  0  0  0  0  0  0  0  0  0
    1.6313   -2.8177    0.0000 N   0  0  0  0  0  0  0  0  0  0  0  0
    0.3324   -2.0677    0.0000 C   0  0  0  0  0  0  0  0  0  0  0  0
   -0.9667   -2.8177    0.0000 O   0  0  0  0  0  0  0  0  0  0  0  0
    0.3324   -0.5677    0.0000 C   0  0  0  0  0  0  0  0  0  0  0  0
    1.6313    0.1823    0.0000 Cl  0  0  0  0  0  0  0  0  0  0  0  0
   -0.9667    0.1823    0.0000 Cl  0  0  0  0  0  0  0  0  0  0  0  0
    2.9305   -5.0677    0.0000 C   0  0  0  0  0  0  0  0  0  0  0  0
    2.9305   -6.5677    0.0000 O   0  0  0  0  0  0  0  0  0  0  0  0
    4.2294   -4.3177    0.0000 C   0  0  0  0  0  0  0  0  0  0  0  0
    4.2294   -2.8177    0.0000 C   0  0  0  0  0  0  0  0  0  0  0  0
    5.5284   -2.0677    0.0000 C   0  0  0  0  0  0  0  0  0  0  0  0
    6.8275   -2.8177    0.0000 C   0  0  0  0  0  0  0  0  0  0  0  0
    6.8275   -4.3177    0.0000 C   0  0  0  0  0  0  0  0  0  0  0  0
    5.5284   -5.0677    0.0000 C   0  0  0  0  0  0  0  0  0  0  0  0
    8.1265   -2.0677    0.0000 N   0  0  0  0  0  0  0  0  0  0  0  0
    8.1265   -0.5677    0.0000 O   0  0  0  0  0  0  0  0  0  0  0  0
    9.4256   -2.8177    0.0000 O   0  0  0  0  0  0  0  0  0  0  0  0
  1  2  1  0  0  0  0
  2  3  1  0  0  0  0
  3  4  1  0  0  0  0
  3 10  1  0  0  0  0
  4  5  1  0  0  0  0
  5  6  2  0  0  0  0
  5  7  1  0  0  0  0
  7  8  1  0  0  0  0
  7  9  1  0  0  0  0
 10 11  1  0  0  0  0
 10 12  1  0  0  0  0
 13 12  2  0  0  0  0
 12 17  1  0  0  0  0
 14 13  1  0  0  0  0
 15 14  2  0  0  0  0
 16 15  1  0  0  0  0
 15 18  1  0  0  0  0
 17 16  2  0  0  0  0
 18 19  2  0  0  0  0
 18 20  1  0  0  0  0
M  CHG  2  18   1  20  -1
M  END
> <Inchi_key>
WIIZWVCIJKGZOK-UHFFFAOYSA-N

> <Source>
Mulliner

> <ID>
HT0444

> <H_MFHB>
0

> <CAS>
56-75-7

> <Cholestasis>


> <Name>
chloramphenicol

> <Class>
0


$$$$