

  -INDIGO-08031710012D

 26 29  0  0  0  0  0  0  0  0999 V2000
    1.6725   -3.0618    0.0000 C   0  0  0  0  0  0  0  0  0  0  0  0
    2.4544   -1.7817    0.0000 N   0  0  0  0  0  0  0  0  0  0  0  0
    1.6410   -0.5213    0.0000 C   0  0  0  0  0  0  0  0  0  0  0  0
    0.1526   -0.7077    0.0000 O   0  0  0  0  0  0  0  0  0  0  0  0
    2.1186    0.9006    0.0000 C   0  0  0  0  0  0  0  0  0  0  0  0
    3.5278    1.4145    0.0000 N   0  0  0  0  0  0  0  0  0  0  0  0
    3.5635    2.9141    0.0000 C   0  0  0  0  0  0  0  0  0  0  0  0
    2.2828    3.6948    0.0000 O   0  0  0  0  0  0  0  0  0  0  0  0
    4.8800    3.6329    0.0000 C   0  0  0  0  0  0  0  0  0  0  0  0
    6.1608    2.8522    0.0000 C   0  0  0  0  0  0  0  0  0  0  0  0
    7.4774    3.5711    0.0000 C   0  0  0  0  0  0  0  0  0  0  0  0
    6.1251    1.3527    0.0000 O   0  0  0  0  0  0  0  0  0  0  0  0
    4.8086    0.6338    0.0000 C   0  0  0  0  0  0  0  0  0  0  0  0
    2.3523    0.1681    0.0000 C   0  0  0  0  0  0  0  0  0  0  0  0
    1.5857    1.4574    0.0000 C   0  0  0  0  0  0  0  0  0  0  0  0
    0.0859    1.4381    0.0000 C   0  0  0  0  0  0  0  0  0  0  0  0
   -0.6474    0.1296    0.0000 C   0  0  0  0  0  0  0  0  0  0  0  0
    0.1192   -1.1597    0.0000 C   0  0  0  0  0  0  0  0  0  0  0  0
    1.6192   -1.1405    0.0000 C   0  0  0  0  0  0  0  0  0  0  0  0
    4.9940   -0.8554    0.0000 C   0  0  0  0  0  0  0  0  0  0  0  0
    6.4477   -1.2251    0.0000 C   0  0  0  0  0  0  0  0  0  0  0  0
    6.8546   -2.6689    0.0000 C   0  0  0  0  0  0  0  0  0  0  0  0
    8.3083   -3.0385    0.0000 Cl  0  0  0  0  0  0  0  0  0  0  0  0
    5.8076   -3.7431    0.0000 C   0  0  0  0  0  0  0  0  0  0  0  0
    4.3538   -3.3734    0.0000 C   0  0  0  0  0  0  0  0  0  0  0  0
    3.9469   -1.9297    0.0000 C   0  0  0  0  0  0  0  0  0  0  0  0
  1  2  1  0  0  0  0
  3  2  1  0  0  0  0
  2 26  1  0  0  0  0
  3  4  2  0  0  0  0
  5  3  1  0  0  0  0
  6  5  1  0  0  0  0
  7  6  1  0  0  0  0
  6 13  1  0  0  0  0
  7  8  2  0  0  0  0
  9  7  1  0  0  0  0
 10  9  2  0  0  0  0
 10 11  1  0  0  0  0
 12 10  1  0  0  0  0
 13 12  1  0  0  0  0
 13 14  1  0  0  0  0
 20 13  1  0  0  0  0
 15 14  2  0  0  0  0
 14 19  1  0  0  0  0
 16 15  1  0  0  0  0
 17 16  2  0  0  0  0
 18 17  1  0  0  0  0
 19 18  2  0  0  0  0
 21 20  2  0  0  0  0
 20 26  1  0  0  0  0
 22 21  1  0  0  0  0
 22 23  1  0  0  0  0
 24 22  2  0  0  0  0
 25 24  1  0  0  0  0
 26 25  2  0  0  0  0
M  END
> <Inchi_key>
PWAJCNITSBZRBL-UHFFFAOYSA-N

> <Source>
Mulliner

> <ID>
HT1158

> <H_MFHB>
0

> <CAS>


> <Cholestasis>


> <Name>
ketazolam

> <Class>
0


$$$$