
  -INDIGO-08031710012D

 28 31  0  0  0  0  0  0  0  0999 V2000
   -4.5808   -3.0906    0.0000 C   0  0  0  0  0  0  0  0  0  0  0  0
   -5.1424   -4.4815    0.0000 C   0  0  0  0  0  0  0  0  0  0  0  0
   -6.6277   -4.6907    0.0000 O   0  0  0  0  0  0  0  0  0  0  0  0
   -4.2187   -5.6633    0.0000 O   0  0  0  0  0  0  0  0  0  0  0  0
   -2.7332   -5.4542    0.0000 C   0  0  0  0  0  0  0  0  0  0  0  0
   -2.8644   -3.9599    0.0000 C   0  0  0  0  0  0  0  0  0  0  0  0
   -1.4838   -3.3735    0.0000 C   0  0  0  0  0  0  0  0  0  0  0  0
   -0.4994   -4.5053    0.0000 C   0  0  0  0  0  0  0  0  0  0  0  0
    1.0004   -4.5311    0.0000 C   0  0  0  0  0  0  0  0  0  0  0  0
    1.7727   -3.2452    0.0000 C   0  0  0  0  0  0  0  0  0  0  0  0
    3.2725   -3.2710    0.0000 C   0  0  0  0  0  0  0  0  0  0  0  0
    4.0446   -1.9850    0.0000 C   0  0  0  0  0  0  0  0  0  0  0  0
    3.9999   -4.5827    0.0000 C   0  0  0  0  0  0  0  0  0  0  0  0
    5.4999   -4.6085    0.0000 C   0  0  0  0  0  0  0  0  0  0  0  0
    6.2273   -5.9203    0.0000 C   0  0  0  0  0  0  0  0  0  0  0  0
    7.7271   -5.9461    0.0000 O   0  0  0  0  0  0  0  0  0  0  0  0
    5.4550   -7.2062    0.0000 C   0  0  0  0  0  0  0  0  0  0  0  0
    3.9552   -7.1804    0.0000 C   0  0  0  0  0  0  0  0  0  0  0  0
    3.2278   -5.8687    0.0000 C   0  0  0  0  0  0  0  0  0  0  0  0
    2.4555   -7.1546    0.0000 C   0  0  0  0  0  0  0  0  0  0  0  0
    1.7280   -5.8429    0.0000 C   0  0  0  0  0  0  0  0  0  0  0  0
    0.9557   -7.1288    0.0000 C   0  0  0  0  0  0  0  0  0  0  0  0
   -0.5441   -7.1030    0.0000 C   0  0  0  0  0  0  0  0  0  0  0  0
   -1.2715   -5.7912    0.0000 C   0  0  0  0  0  0  0  0  0  0  0  0
   -2.1529   -7.0050    0.0000 C   0  0  0  0  0  0  0  0  0  0  0  0
   -3.2459   -6.8639    0.0000 C   0  0  0  0  0  0  0  0  0  0  0  0
   -2.2815   -8.0127    0.0000 O   0  0  0  0  0  0  0  0  0  0  0  0
   -4.7229   -7.1247    0.0000 C   0  0  0  0  0  0  0  0  0  0  0  0
  1  2  1  0  0  0  0
  2  3  2  0  0  0  0
  2  4  1  0  0  0  0
  4  5  1  0  0  0  0
  6  5  1  0  0  0  0
  5 24  1  0  0  0  0
  5 26  1  0  0  0  0
  7  6  1  0  0  0  0
  8  7  1  0  0  0  0
  9  8  1  0  0  0  0
  8 24  1  0  0  0  0
 10  9  1  0  0  0  0
  9 21  1  0  0  0  0
 11 10  2  0  0  0  0
 11 12  1  0  0  0  0
 13 11  1  0  0  0  0
 14 13  2  0  0  0  0
 13 19  1  0  0  0  0
 15 14  1  0  0  0  0
 15 16  2  0  0  0  0
 17 15  1  0  0  0  0
 18 17  1  0  0  0  0
 19 18  1  0  0  0  0
 19 20  1  0  0  0  0
 21 19  1  0  0  0  0
 22 21  1  0  0  0  0
 23 22  1  0  0  0  0
 24 23  1  0  0  0  0
 24 25  1  0  0  0  0
 26 27  2  0  0  0  0
 26 28  1  0  0  0  0
M  END
> <Inchi_key>
RQZAXGRLVPAYTJ-UHFFFAOYSA-N

> <Source>
Mulliner

> <ID>
HT1291

> <H_MFHB>
0

> <CAS>


> <Cholestasis>


> <Name>
megestrol acetate

> <Class>
0

$$$$