
  -INDIGO-08031710012D

 12 12  0  0  0  0  0  0  0  0999 V2000
    7.5000   -4.3301    0.0000 N   0  0  0  0  0  0  0  0  0  0  0  0
    6.7500   -3.0311    0.0000 C   0  0  0  0  0  0  0  0  0  0  0  0
    5.2500   -3.0311    0.0000 C   0  0  0  0  0  0  0  0  0  0  0  0
    4.5000   -1.7321    0.0000 C   0  0  0  0  0  0  0  0  0  0  0  0
    3.0000   -1.7321    0.0000 C   0  0  0  0  0  0  0  0  0  0  0  0
    2.2500   -3.0311    0.0000 C   0  0  0  0  0  0  0  0  0  0  0  0
    3.0000   -4.3301    0.0000 C   0  0  0  0  0  0  0  0  0  0  0  0
    4.5000   -4.3301    0.0000 C   0  0  0  0  0  0  0  0  0  0  0  0
    0.7499   -3.0311    0.0000 S   0  0  0  0  0  0  0  0  0  0  0  0
    0.7499   -4.5311    0.0000 O   0  0  0  0  0  0  0  0  0  0  0  0
    0.7499   -1.5311    0.0000 O   0  0  0  0  0  0  0  0  0  0  0  0
   -0.7500   -3.0311    0.0000 N   0  0  0  0  0  0  0  0  0  0  0  0
  1  2  1  0  0  0  0
  2  3  1  0  0  0  0
  4  3  2  0  0  0  0
  3  8  1  0  0  0  0
  5  4  1  0  0  0  0
  6  5  2  0  0  0  0
  7  6  1  0  0  0  0
  6  9  1  0  0  0  0
  8  7  2  0  0  0  0
  9 10  2  0  0  0  0
  9 11  2  0  0  0  0
  9 12  1  0  0  0  0
M  END
> <Inchi_key>
TYMRLRRVMHJFTF-UHFFFAOYSA-N

> <Source>
Mulliner , Kotsampasakou

> <ID>
EK0310;HT1262

> <H_MFHB>
0

> <CAS>


> <Cholestasis>
0

> <Name>
mafenide

> <Class>
0

$$$$