
  -INDIGO-08031710012D

 36 39  0  0  0  0  0  0  0  0999 V2000
    1.6699   -6.2326    0.0000 C   0  0  0  0  0  0  0  0  0  0  0  0
    2.9690   -5.4826    0.0000 C   0  0  0  0  0  0  0  0  0  0  0  0
    4.2680   -6.2326    0.0000 C   0  0  0  0  0  0  0  0  0  0  0  0
    5.5671   -5.4826    0.0000 C   0  0  0  0  0  0  0  0  0  0  0  0
    5.5671   -3.9825    0.0000 C   0  0  0  0  0  0  0  0  0  0  0  0
    4.2680   -3.2326    0.0000 C   0  0  0  0  0  0  0  0  0  0  0  0
    4.2680   -1.7326    0.0000 C   0  0  0  0  0  0  0  0  0  0  0  0
    2.9690   -3.9825    0.0000 C   0  0  0  0  0  0  0  0  0  0  0  0
    1.6699   -3.2326    0.0000 N   0  0  0  0  0  0  0  0  0  0  0  0
    0.3709   -3.9825    0.0000 C   0  0  0  0  0  0  0  0  0  0  0  0
    0.3709   -5.4826    0.0000 O   0  0  0  0  0  0  0  0  0  0  0  0
   -0.9279   -3.2326    0.0000 C   0  0  0  0  0  0  0  0  0  0  0  0
   -2.2272   -3.9825    0.0000 N   0  0  0  0  0  0  0  0  0  0  0  0
   -3.5260   -3.2326    0.0000 C   0  0  0  0  0  0  0  0  0  0  0  0
   -4.8250   -3.9825    0.0000 C   0  0  0  0  0  0  0  0  0  0  0  0
   -4.8250   -5.4826    0.0000 N   0  0  0  0  0  0  0  0  0  0  0  0
   -6.1241   -6.2326    0.0000 C   0  0  0  0  0  0  0  0  0  0  0  0
   -7.4232   -5.4826    0.0000 C   0  0  0  0  0  0  0  0  0  0  0  0
   -8.7222   -6.2326    0.0000 C   0  0  0  0  0  0  0  0  0  0  0  0
  -10.0213   -5.4826    0.0000 C   0  0  0  0  0  0  0  0  0  0  0  0
  -11.3203   -6.2326    0.0000 C   0  0  0  0  0  0  0  0  0  0  0  0
  -11.3203   -7.7326    0.0000 C   0  0  0  0  0  0  0  0  0  0  0  0
  -12.6194   -8.4826    0.0000 C   0  0  0  0  0  0  0  0  0  0  0  0
  -13.9184   -7.7326    0.0000 C   0  0  0  0  0  0  0  0  0  0  0  0
  -15.2175   -8.4826    0.0000 F   0  0  0  0  0  0  0  0  0  0  0  0
  -13.9184   -6.2326    0.0000 C   0  0  0  0  0  0  0  0  0  0  0  0
  -12.6194   -5.4826    0.0000 C   0  0  0  0  0  0  0  0  0  0  0  0
  -10.0213   -3.9825    0.0000 C   0  0  0  0  0  0  0  0  0  0  0  0
   -8.7222   -3.2326    0.0000 C   0  0  0  0  0  0  0  0  0  0  0  0
   -8.7222   -1.7326    0.0000 C   0  0  0  0  0  0  0  0  0  0  0  0
  -10.0213   -0.9825    0.0000 C   0  0  0  0  0  0  0  0  0  0  0  0
  -10.0213    0.5174    0.0000 F   0  0  0  0  0  0  0  0  0  0  0  0
  -11.3203   -1.7326    0.0000 C   0  0  0  0  0  0  0  0  0  0  0  0
  -11.3203   -3.2326    0.0000 C   0  0  0  0  0  0  0  0  0  0  0  0
   -3.5260   -6.2326    0.0000 C   0  0  0  0  0  0  0  0  0  0  0  0
   -2.2272   -5.4826    0.0000 C   0  0  0  0  0  0  0  0  0  0  0  0
  1  2  1  0  0  0  0
  3  2  2  0  0  0  0
  2  8  1  0  0  0  0
  4  3  1  0  0  0  0
  5  4  2  0  0  0  0
  6  5  1  0  0  0  0
  6  7  1  0  0  0  0
  8  6  2  0  0  0  0
  8  9  1  0  0  0  0
  9 10  1  0  0  0  0
 10 11  2  0  0  0  0
 10 12  1  0  0  0  0
 12 13  1  0  0  0  0
 14 13  1  0  0  0  0
 13 36  1  0  0  0  0
 15 14  1  0  0  0  0
 16 15  1  0  0  0  0
 16 17  1  0  0  0  0
 35 16  1  0  0  0  0
 17 18  1  0  0  0  0
 18 19  1  0  0  0  0
 19 20  1  0  0  0  0
 20 21  1  0  0  0  0
 20 28  1  0  0  0  0
 22 21  2  0  0  0  0
 21 27  1  0  0  0  0
 23 22  1  0  0  0  0
 24 23  2  0  0  0  0
 24 25  1  0  0  0  0
 26 24  1  0  0  0  0
 27 26  2  0  0  0  0
 29 28  2  0  0  0  0
 28 34  1  0  0  0  0
 30 29  1  0  0  0  0
 31 30  2  0  0  0  0
 31 32  1  0  0  0  0
 33 31  1  0  0  0  0
 34 33  2  0  0  0  0
 36 35  1  0  0  0  0
M  END
> <Inchi_key>
ZBIAKUMOEKILTF-UHFFFAOYSA-N

> <Source>
Mulliner

> <ID>
HT1208

> <H_MFHB>
0

> <CAS>


> <Cholestasis>


> <Name>
lidoflazine

> <Class>
0

$$$$