
  -INDIGO-08031710012D

 25 28  0  0  0  0  0  0  0  0999 V2000
   -0.4759   -3.0392    0.0000 C   0  0  0  0  0  0  0  0  0  0  0  0
    0.9521   -3.4979    0.0000 C   0  0  0  0  0  0  0  0  0  0  0  0
    1.2689   -4.9640    0.0000 O   0  0  0  0  0  0  0  0  0  0  0  0
    2.0635   -2.4904    0.0000 C   0  0  0  0  0  0  0  0  0  0  0  0
    1.9015   -0.9991    0.0000 C   0  0  0  0  0  0  0  0  0  0  0  0
    3.2696   -0.3844    0.0000 C   0  0  0  0  0  0  0  0  0  0  0  0
    4.2772   -1.4956    0.0000 C   0  0  0  0  0  0  0  0  0  0  0  0
    5.7771   -1.4905    0.0000 C   0  0  0  0  0  0  0  0  0  0  0  0
    6.5229   -0.1889    0.0000 C   0  0  0  0  0  0  0  0  0  0  0  0
    8.0228   -0.1838    0.0000 C   0  0  0  0  0  0  0  0  0  0  0  0
    8.7772   -1.4803    0.0000 C   0  0  0  0  0  0  0  0  0  0  0  0
   10.2773   -1.4751    0.0000 C   0  0  0  0  0  0  0  0  0  0  0  0
   11.0317   -2.7716    0.0000 C   0  0  0  0  0  0  0  0  0  0  0  0
   12.5316   -2.7665    0.0000 O   0  0  0  0  0  0  0  0  0  0  0  0
   10.2862   -4.0732    0.0000 C   0  0  0  0  0  0  0  0  0  0  0  0
    8.7861   -4.0783    0.0000 C   0  0  0  0  0  0  0  0  0  0  0  0
    8.0317   -2.7819    0.0000 C   0  0  0  0  0  0  0  0  0  0  0  0
    7.2861   -4.0834    0.0000 C   0  0  0  0  0  0  0  0  0  0  0  0
    6.5317   -2.7870    0.0000 C   0  0  0  0  0  0  0  0  0  0  0  0
    5.7860   -4.0886    0.0000 C   0  0  0  0  0  0  0  0  0  0  0  0
    4.2861   -4.0937    0.0000 C   0  0  0  0  0  0  0  0  0  0  0  0
    3.5317   -2.7972    0.0000 C   0  0  0  0  0  0  0  0  0  0  0  0
    2.6755   -4.0289    0.0000 C   0  0  0  0  0  0  0  0  0  0  0  0
    0.5999   -0.2536    0.0000 C   0  0  0  0  0  0  0  0  0  0  0  0
   -0.7017    0.4920    0.0000 N   0  0  0  0  0  0  0  0  0  0  0  0
  1  2  1  0  0  0  0
  2  3  2  0  0  0  0
  2  4  1  0  0  0  0
  5  4  1  0  0  0  0
  4 22  1  0  0  0  0
  6  5  1  0  0  0  0
  5 24  1  0  0  0  0
  7  6  1  0  0  0  0
  8  7  1  0  0  0  0
  7 22  1  0  0  0  0
  9  8  1  0  0  0  0
  8 19  1  0  0  0  0
 10  9  1  0  0  0  0
 11 10  2  0  0  0  0
 12 11  1  0  0  0  0
 11 17  1  0  0  0  0
 13 12  1  0  0  0  0
 13 14  1  0  0  0  0
 15 13  1  0  0  0  0
 16 15  1  0  0  0  0
 17 16  1  0  0  0  0
 17 18  1  0  0  0  0
 19 17  1  0  0  0  0
 20 19  1  0  0  0  0
 21 20  1  0  0  0  0
 22 21  1  0  0  0  0
 22 23  1  0  0  0  0
 24 25  3  0  0  0  0
M  END
> <Inchi_key>
VSBHRRMYCDQLJF-UHFFFAOYSA-N

> <Source>
Mulliner

> <ID>
HT1736

> <H_MFHB>
0

> <CAS>
1434-54-4

> <Cholestasis>


> <Name>
pregnenolone 16 alpha carbonitrile

> <Class>
0

$$$$