

  -INDIGO-08031710012D

 44 49  0  0  0  0  0  0  0  0999 V2000
   -0.0442   -0.0455    0.0000 C   0  0  0  0  0  0  0  0  0  0  0  0
    1.4554   -0.0252    0.0000 O   0  0  0  0  0  0  0  0  0  0  0  0
    2.2228   -1.3141    0.0000 C   0  0  0  0  0  0  0  0  0  0  0  0
    1.4906   -2.6231    0.0000 C   0  0  0  0  0  0  0  0  0  0  0  0
    2.2580   -3.9118    0.0000 C   0  0  0  0  0  0  0  0  0  0  0  0
    3.7576   -3.8918    0.0000 C   0  0  0  0  0  0  0  0  0  0  0  0
    4.5254   -5.1805    0.0000 C   0  0  0  0  0  0  0  0  0  0  0  0
    6.0251   -5.1602    0.0000 N   0  0  0  0  0  0  0  0  0  0  0  0
    6.7925   -6.4491    0.0000 C   0  0  0  0  0  0  0  0  0  0  0  0
    8.2925   -6.4289    0.0000 C   0  0  0  0  0  0  0  0  0  0  0  0
    9.0251   -5.1197    0.0000 C   0  0  0  0  0  0  0  0  0  0  0  0
    8.2573   -3.8310    0.0000 C   0  0  0  0  0  0  0  0  0  0  0  0
    9.2460   -2.7028    0.0000 N   0  0  0  0  0  0  0  0  0  0  0  0
   10.6245   -3.2944    0.0000 C   0  0  0  0  0  0  0  0  0  0  0  0
   11.9864   -2.6659    0.0000 C   0  0  0  0  0  0  0  0  0  0  0  0
   13.2115   -3.5312    0.0000 C   0  0  0  0  0  0  0  0  0  0  0  0
   14.5738   -2.9027    0.0000 O   0  0  0  0  0  0  0  0  0  0  0  0
   15.7989   -3.7678    0.0000 C   0  0  0  0  0  0  0  0  0  0  0  0
   13.0752   -5.0249    0.0000 C   0  0  0  0  0  0  0  0  0  0  0  0
   11.7129   -5.6534    0.0000 C   0  0  0  0  0  0  0  0  0  0  0  0
   10.4878   -4.7882    0.0000 C   0  0  0  0  0  0  0  0  0  0  0  0
    6.7577   -3.8512    0.0000 C   0  0  0  0  0  0  0  0  0  0  0  0
    5.9903   -2.5624    0.0000 C   0  0  0  0  0  0  0  0  0  0  0  0
    4.4902   -2.5826    0.0000 C   0  0  0  0  0  0  0  0  0  0  0  0
    3.7228   -1.2939    0.0000 C   0  0  0  0  0  0  0  0  0  0  0  0
    4.4551    0.0153    0.0000 C   0  0  0  0  0  0  0  0  0  0  0  0
    5.9551    0.0355    0.0000 O   0  0  0  0  0  0  0  0  0  0  0  0
    3.6877    1.3040    0.0000 O   0  0  0  0  0  0  0  0  0  0  0  0
    4.4203    2.6130    0.0000 C   0  0  0  0  0  0  0  0  0  0  0  0
   -0.0094   -2.6433    0.0000 O   0  0  0  0  0  0  0  0  0  0  0  0
   -0.7417   -3.9522    0.0000 C   0  0  0  0  0  0  0  0  0  0  0  0
    0.0257   -5.2412    0.0000 O   0  0  0  0  0  0  0  0  0  0  0  0
   -2.2417   -3.9726    0.0000 C   0  0  0  0  0  0  0  0  0  0  0  0
   -3.0091   -2.6839    0.0000 C   0  0  0  0  0  0  0  0  0  0  0  0
   -4.5087   -2.7041    0.0000 C   0  0  0  0  0  0  0  0  0  0  0  0
   -5.2765   -1.4151    0.0000 O   0  0  0  0  0  0  0  0  0  0  0  0
   -4.5439   -0.1062    0.0000 C   0  0  0  0  0  0  0  0  0  0  0  0
   -5.2413   -4.0130    0.0000 C   0  0  0  0  0  0  0  0  0  0  0  0
   -6.7414   -4.0333    0.0000 O   0  0  0  0  0  0  0  0  0  0  0  0
   -7.4736   -5.3422    0.0000 C   0  0  0  0  0  0  0  0  0  0  0  0
   -4.4739   -5.3018    0.0000 C   0  0  0  0  0  0  0  0  0  0  0  0
   -5.2062   -6.6109    0.0000 O   0  0  0  0  0  0  0  0  0  0  0  0
   -4.4388   -7.8997    0.0000 C   0  0  0  0  0  0  0  0  0  0  0  0
   -2.9739   -5.2816    0.0000 C   0  0  0  0  0  0  0  0  0  0  0  0
  1  2  1  0  0  0  0
  2  3  1  0  0  0  0
  4  3  1  0  0  0  0
  3 25  1  0  0  0  0
  5  4  1  0  0  0  0
  4 30  1  0  0  0  0
  6  5  1  0  0  0  0
  7  6  1  0  0  0  0
  6 24  1  0  0  0  0
  8  7  1  0  0  0  0
  9  8  1  0  0  0  0
  8 22  1  0  0  0  0
 10  9  1  0  0  0  0
 11 10  1  0  0  0  0
 11 12  2  0  0  0  0
 21 11  1  0  0  0  0
 12 13  1  0  0  0  0
 22 12  1  0  0  0  0
 13 14  1  0  0  0  0
 15 14  1  0  0  0  0
 14 21  2  0  0  0  0
 16 15  2  0  0  0  0
 16 17  1  0  0  0  0
 19 16  1  0  0  0  0
 17 18  1  0  0  0  0
 20 19  2  0  0  0  0
 21 20  1  0  0  0  0
 23 22  1  0  0  0  0
 24 23  1  0  0  0  0
 25 24  1  0  0  0  0
 25 26  1  0  0  0  0
 26 27  2  0  0  0  0
 26 28  1  0  0  0  0
 28 29  1  0  0  0  0
 30 31  1  0  0  0  0
 31 32  2  0  0  0  0
 31 33  1  0  0  0  0
 34 33  2  0  0  0  0
 33 44  1  0  0  0  0
 35 34  1  0  0  0  0
 35 36  1  0  0  0  0
 38 35  2  0  0  0  0
 36 37  1  0  0  0  0
 38 39  1  0  0  0  0
 41 38  1  0  0  0  0
 39 40  1  0  0  0  0
 41 42  1  0  0  0  0
 44 41  2  0  0  0  0
 42 43  1  0  0  0  0
M  END
> <Inchi_key>
QEVHRUUCFGRFIF-UHFFFAOYSA-N

> <Source>
Mulliner , Kotsampasakou

> <ID>
EK0466;HT1813

> <H_MFHB>
0

> <CAS>
50-55-5

> <Cholestasis>
0

> <Name>
reserpine

> <Class>
0


$$$$