
  -INDIGO-08031710012D

 21 24  0  0  0  0  0  0  0  0999 V2000
    9.9493   -0.8741    0.0000 F   0  0  0  0  0  0  0  0  0  0  0  0
    8.6153   -1.5598    0.0000 C   0  0  0  0  0  0  0  0  0  0  0  0
    8.5421   -3.0580    0.0000 C   0  0  0  0  0  0  0  0  0  0  0  0
    7.2079   -3.7438    0.0000 C   0  0  0  0  0  0  0  0  0  0  0  0
    5.9470   -2.9313    0.0000 C   0  0  0  0  0  0  0  0  0  0  0  0
    4.4997   -3.3247    0.0000 C   0  0  0  0  0  0  0  0  0  0  0  0
    3.8235   -4.6636    0.0000 C   0  0  0  0  0  0  0  0  0  0  0  0
    2.3257   -4.7474    0.0000 C   0  0  0  0  0  0  0  0  0  0  0  0
    1.5043   -3.4923    0.0000 C   0  0  0  0  0  0  0  0  0  0  0  0
    0.0066   -3.5762    0.0000 F   0  0  0  0  0  0  0  0  0  0  0  0
    2.1805   -2.1533    0.0000 C   0  0  0  0  0  0  0  0  0  0  0  0
    3.6783   -2.0696    0.0000 C   0  0  0  0  0  0  0  0  0  0  0  0
    4.6180   -0.9005    0.0000 C   0  0  0  0  0  0  0  0  0  0  0  0
    3.2157   -0.3679    0.0000 N   0  0  0  0  0  0  0  0  0  0  0  0
    3.2890    1.1303    0.0000 C   0  0  0  0  0  0  0  0  0  0  0  0
    2.1199    2.0701    0.0000 O   0  0  0  0  0  0  0  0  0  0  0  0
    4.7363    1.5237    0.0000 N   0  0  0  0  0  0  0  0  0  0  0  0
    5.5577    0.2686    0.0000 C   0  0  0  0  0  0  0  0  0  0  0  0
    7.0559    0.1954    0.0000 O   0  0  0  0  0  0  0  0  0  0  0  0
    6.0203   -1.4331    0.0000 C   0  0  0  0  0  0  0  0  0  0  0  0
    7.3544   -0.7473    0.0000 C   0  0  0  0  0  0  0  0  0  0  0  0
  1  2  1  0  0  0  0
  3  2  2  0  0  0  0
  2 21  1  0  0  0  0
  4  3  1  0  0  0  0
  5  4  2  0  0  0  0
  6  5  1  0  0  0  0
  5 20  1  0  0  0  0
  7  6  2  0  0  0  0
  6 12  1  0  0  0  0
  8  7  1  0  0  0  0
  9  8  2  0  0  0  0
  9 10  1  0  0  0  0
 11  9  1  0  0  0  0
 12 11  2  0  0  0  0
 13 12  1  0  0  0  0
 14 13  1  0  0  0  0
 13 18  1  0  0  0  0
 20 13  1  0  0  0  0
 15 14  1  0  0  0  0
 15 16  2  0  0  0  0
 17 15  1  0  0  0  0
 18 17  1  0  0  0  0
 18 19  2  0  0  0  0
 21 20  2  0  0  0  0
M  END
> <Inchi_key>
QCCHBHSAIQIQGO-UHFFFAOYSA-N

> <Source>
Mulliner

> <ID>
HT1085

> <H_MFHB>
0

> <CAS>
89391-50-4

> <Cholestasis>


> <Name>
imirestat

> <Class>
0

$$$$