

  -INDIGO-08031710012D

 17 18  0  0  0  0  0  0  0  0999 V2000
    5.9198   -5.7168    0.0000 C   0  0  0  0  0  0  0  0  0  0  0  0
    5.8676   -4.2177    0.0000 N   0  0  0  0  0  0  0  0  0  0  0  0
    4.5686   -4.9677    0.0000 C   0  0  0  0  0  0  0  0  0  0  0  0
    3.2695   -4.2177    0.0000 C   0  0  0  0  0  0  0  0  0  0  0  0
    1.9705   -4.9677    0.0000 C   0  0  0  0  0  0  0  0  0  0  0  0
    0.6714   -4.2177    0.0000 C   0  0  0  0  0  0  0  0  0  0  0  0
   -0.6277   -4.9677    0.0000 C   0  0  0  0  0  0  0  0  0  0  0  0
   -1.9267   -4.2177    0.0000 N   0  0  0  0  0  0  0  0  0  0  0  0
   -1.9789   -5.7168    0.0000 C   0  0  0  0  0  0  0  0  0  0  0  0
   -1.3406   -2.8370    0.0000 C   0  0  0  0  0  0  0  0  0  0  0  0
   -2.4727   -1.8529    0.0000 C   0  0  0  0  0  0  0  0  0  0  0  0
   -3.7584   -2.6254    0.0000 C   0  0  0  0  0  0  0  0  0  0  0  0
   -3.4210   -4.0870    0.0000 C   0  0  0  0  0  0  0  0  0  0  0  0
    5.2815   -2.8370    0.0000 C   0  0  0  0  0  0  0  0  0  0  0  0
    6.4136   -1.8529    0.0000 C   0  0  0  0  0  0  0  0  0  0  0  0
    7.6993   -2.6254    0.0000 C   0  0  0  0  0  0  0  0  0  0  0  0
    7.3619   -4.0870    0.0000 C   0  0  0  0  0  0  0  0  0  0  0  0
  1  2  1  0  0  0  0
  2  3  1  0  0  0  0
 14  2  1  0  0  0  0
  2 17  1  0  0  0  0
  3  4  1  0  0  0  0
  4  5  1  0  0  0  0
  5  6  1  0  0  0  0
  6  7  1  0  0  0  0
  7  8  1  0  0  0  0
  8  9  1  0  0  0  0
 10  8  1  0  0  0  0
  8 13  1  0  0  0  0
 11 10  1  0  0  0  0
 12 11  1  0  0  0  0
 13 12  1  0  0  0  0
 15 14  1  0  0  0  0
 16 15  1  0  0  0  0
 17 16  1  0  0  0  0
M  CHG  2   2   1   8   1
M  END
> <Inchi_key>
XSBSKEQEUFOSDD-UHFFFAOYSA-N

> <Source>
Mulliner

> <ID>
HT1624

> <H_MFHB>
0

> <CAS>


> <Cholestasis>


> <Name>
pentolinium

> <Class>
0


$$$$