
  -INDIGO-08031710012D

 23 25  0  0  0  0  0  0  0  0999 V2000
   10.3599    5.9813    0.0000 C   0  0  0  0  0  0  0  0  0  0  0  0
    9.6098    4.6822    0.0000 N   0  0  0  0  0  0  0  0  0  0  0  0
   11.1099    4.6822    0.0000 C   0  0  0  0  0  0  0  0  0  0  0  0
    9.6098    3.1822    0.0000 C   0  0  0  0  0  0  0  0  0  0  0  0
    8.3107    2.4322    0.0000 C   0  0  0  0  0  0  0  0  0  0  0  0
    7.0118    3.1822    0.0000 N   0  0  0  0  0  0  0  0  0  0  0  0
    5.7126    2.4322    0.0000 C   0  0  0  0  0  0  0  0  0  0  0  0
    4.4137    3.1822    0.0000 C   0  0  0  0  0  0  0  0  0  0  0  0
    5.1637    4.4813    0.0000 O   0  0  0  0  0  0  0  0  0  0  0  0
    3.1147    3.9322    0.0000 C   0  0  0  0  0  0  0  0  0  0  0  0
    3.1147    5.4322    0.0000 C   0  0  0  0  0  0  0  0  0  0  0  0
    1.8156    6.1822    0.0000 C   0  0  0  0  0  0  0  0  0  0  0  0
    0.5166    5.4322    0.0000 C   0  0  0  0  0  0  0  0  0  0  0  0
    0.5166    3.9322    0.0000 C   0  0  0  0  0  0  0  0  0  0  0  0
    1.8156    3.1822    0.0000 C   0  0  0  0  0  0  0  0  0  0  0  0
    3.6636    1.8832    0.0000 C   0  0  0  0  0  0  0  0  0  0  0  0
    2.1637    1.8832    0.0000 C   0  0  0  0  0  0  0  0  0  0  0  0
    1.4137    0.5842    0.0000 C   0  0  0  0  0  0  0  0  0  0  0  0
    2.1637   -0.7149    0.0000 C   0  0  0  0  0  0  0  0  0  0  0  0
    3.6636   -0.7149    0.0000 C   0  0  0  0  0  0  0  0  0  0  0  0
    4.4137    0.5842    0.0000 C   0  0  0  0  0  0  0  0  0  0  0  0
    7.0118    4.6822    0.0000 C   0  0  0  0  0  0  0  0  0  0  0  0
    8.3107    5.4322    0.0000 C   0  0  0  0  0  0  0  0  0  0  0  0
  1  2  1  0  0  0  0
  2  3  1  0  0  0  0
  4  2  1  0  0  0  0
  2 23  1  0  0  0  0
  5  4  1  0  0  0  0
  6  5  1  0  0  0  0
  6  7  1  0  0  0  0
 22  6  1  0  0  0  0
  7  8  1  0  0  0  0
  8  9  1  0  0  0  0
  8 10  1  0  0  0  0
  8 16  1  0  0  0  0
 11 10  1  0  0  0  0
 10 15  1  0  0  0  0
 12 11  1  0  0  0  0
 13 12  1  0  0  0  0
 14 13  1  0  0  0  0
 15 14  1  0  0  0  0
 17 16  2  0  0  0  0
 16 21  1  0  0  0  0
 18 17  1  0  0  0  0
 19 18  2  0  0  0  0
 20 19  1  0  0  0  0
 21 20  2  0  0  0  0
 23 22  1  0  0  0  0
M  CHG  1   2   1
M  END
> <Inchi_key>
ZRYHPQCHHOKSMD-UHFFFAOYSA-N

> <Source>
Mulliner

> <ID>
HT3446

> <H_MFHB>
0

> <CAS>


> <Cholestasis>


> <Name>


> <Class>
0

$$$$