
  -INDIGO-08031710012D

 21 23  0  0  0  0  0  0  0  0999 V2000
    0.7118   -2.6564    0.0000 C   0  0  0  0  0  0  0  0  0  0  0  0
    2.0108   -1.9063    0.0000 C   0  0  0  0  0  0  0  0  0  0  0  0
    3.3099   -2.6564    0.0000 C   0  0  0  0  0  0  0  0  0  0  0  0
    4.6089   -1.9063    0.0000 C   0  0  0  0  0  0  0  0  0  0  0  0
    4.6089   -0.4063    0.0000 C   0  0  0  0  0  0  0  0  0  0  0  0
    3.3099    0.3436    0.0000 C   0  0  0  0  0  0  0  0  0  0  0  0
    2.0108   -0.4063    0.0000 C   0  0  0  0  0  0  0  0  0  0  0  0
    5.9078    0.3436    0.0000 C   0  0  0  0  0  0  0  0  0  0  0  0
    7.2070   -0.4063    0.0000 C   0  0  0  0  0  0  0  0  0  0  0  0
    8.5059    0.3436    0.0000 C   0  0  0  0  0  0  0  0  0  0  0  0
    9.8051   -0.4063    0.0000 N   0  0  0  0  0  0  0  0  0  0  0  0
   11.1754    0.2038    0.0000 C   0  0  0  0  0  0  0  0  0  0  0  0
   12.1791   -0.9110    0.0000 C   0  0  0  0  0  0  0  0  0  0  0  0
   11.4291   -2.2101    0.0000 C   0  0  0  0  0  0  0  0  0  0  0  0
    9.9618   -1.8982    0.0000 C   0  0  0  0  0  0  0  0  0  0  0  0
    5.9078    1.8436    0.0000 C   0  0  0  0  0  0  0  0  0  0  0  0
    4.6089    2.5937    0.0000 C   0  0  0  0  0  0  0  0  0  0  0  0
    4.6089    4.0937    0.0000 C   0  0  0  0  0  0  0  0  0  0  0  0
    5.9078    4.8436    0.0000 C   0  0  0  0  0  0  0  0  0  0  0  0
    7.2070    4.0937    0.0000 C   0  0  0  0  0  0  0  0  0  0  0  0
    7.2070    2.5937    0.0000 N   0  0  0  0  0  0  0  0  0  0  0  0
  1  2  1  0  0  0  0
  3  2  2  0  0  0  0
  2  7  1  0  0  0  0
  4  3  1  0  0  0  0
  5  4  2  0  0  0  0
  6  5  1  0  0  0  0
  5  8  1  0  0  0  0
  7  6  2  0  0  0  0
  8  9  2  0  0  0  0
  8 16  1  0  0  0  0
  9 10  1  0  0  0  0
 10 11  1  0  0  0  0
 12 11  1  0  0  0  0
 11 15  1  0  0  0  0
 13 12  1  0  0  0  0
 14 13  1  0  0  0  0
 15 14  1  0  0  0  0
 17 16  2  0  0  0  0
 16 21  1  0  0  0  0
 18 17  1  0  0  0  0
 19 18  2  0  0  0  0
 20 19  1  0  0  0  0
 21 20  2  0  0  0  0
M  END
> <Inchi_key>
CBEQULMOCCWAQT-WQRHYEAKSA-N

> <Source>
Mulliner

> <ID>
HT2133

> <H_MFHB>
0

> <CAS>
12/4/486

> <Cholestasis>


> <Name>
triprolidine;triprolidine hydrochloride

> <Class>
0

$$$$