

  -INDIGO-08031710012D

 34 37  0  0  0  0  0  0  0  0999 V2000
    0.7887   -8.9179    0.0000 C   0  0  0  0  0  0  0  0  0  0  0  0
    2.2653   -8.6547    0.0000 C   0  0  0  0  0  0  0  0  0  0  0  0
    2.7758   -7.2443    0.0000 C   0  0  0  0  0  0  0  0  0  0  0  0
    4.2524   -6.9809    0.0000 C   0  0  0  0  0  0  0  0  0  0  0  0
    4.7628   -5.5704    0.0000 C   0  0  0  0  0  0  0  0  0  0  0  0
    6.2397   -5.3072    0.0000 O   0  0  0  0  0  0  0  0  0  0  0  0
    3.7964   -4.4231    0.0000 O   0  0  0  0  0  0  0  0  0  0  0  0
    4.3068   -3.0126    0.0000 C   0  0  0  0  0  0  0  0  0  0  0  0
    4.1734   -1.5186    0.0000 C   0  0  0  0  0  0  0  0  0  0  0  0
    2.8861   -0.7485    0.0000 C   0  0  0  0  0  0  0  0  0  0  0  0
    5.5529   -0.9299    0.0000 C   0  0  0  0  0  0  0  0  0  0  0  0
    6.5392   -2.0601    0.0000 C   0  0  0  0  0  0  0  0  0  0  0  0
    8.0389   -2.0835    0.0000 C   0  0  0  0  0  0  0  0  0  0  0  0
    8.8091   -0.7962    0.0000 C   0  0  0  0  0  0  0  0  0  0  0  0
   10.3090   -0.8197    0.0000 C   0  0  0  0  0  0  0  0  0  0  0  0
   11.0387   -2.1302    0.0000 C   0  0  0  0  0  0  0  0  0  0  0  0
   12.5384   -2.1536    0.0000 C   0  0  0  0  0  0  0  0  0  0  0  0
   13.2683   -3.4642    0.0000 C   0  0  0  0  0  0  0  0  0  0  0  0
   14.7680   -3.4875    0.0000 O   0  0  0  0  0  0  0  0  0  0  0  0
   12.4981   -4.7512    0.0000 C   0  0  0  0  0  0  0  0  0  0  0  0
   10.9982   -4.7281    0.0000 C   0  0  0  0  0  0  0  0  0  0  0  0
   10.2685   -3.4174    0.0000 C   0  0  0  0  0  0  0  0  0  0  0  0
    9.4985   -4.7046    0.0000 C   0  0  0  0  0  0  0  0  0  0  0  0
    8.7688   -3.3941    0.0000 C   0  0  0  0  0  0  0  0  0  0  0  0
    7.2689   -3.3707    0.0000 F   0  0  0  0  0  0  0  0  0  0  0  0
    7.9986   -4.6813    0.0000 C   0  0  0  0  0  0  0  0  0  0  0  0
    8.7282   -5.9918    0.0000 O   0  0  0  0  0  0  0  0  0  0  0  0
    6.4989   -4.6579    0.0000 C   0  0  0  0  0  0  0  0  0  0  0  0
    5.7692   -3.3474    0.0000 C   0  0  0  0  0  0  0  0  0  0  0  0
    4.8896   -4.5625    0.0000 C   0  0  0  0  0  0  0  0  0  0  0  0
    2.8219   -3.2242    0.0000 C   0  0  0  0  0  0  0  0  0  0  0  0
    1.8962   -2.0441    0.0000 O   0  0  0  0  0  0  0  0  0  0  0  0
    2.2626   -4.6161    0.0000 C   0  0  0  0  0  0  0  0  0  0  0  0
    0.7776   -4.8277    0.0000 O   0  0  0  0  0  0  0  0  0  0  0  0
  1  2  1  0  0  0  0
  2  3  1  0  0  0  0
  3  4  1  0  0  0  0
  4  5  1  0  0  0  0
  5  6  2  0  0  0  0
  5  7  1  0  0  0  0
  7  8  1  0  0  0  0
  9  8  1  0  0  0  0
  8 29  1  0  0  0  0
  8 31  1  0  0  0  0
  9 10  1  0  0  0  0
 11  9  1  0  0  0  0
 12 11  1  0  0  0  0
 13 12  1  0  0  0  0
 12 29  1  0  0  0  0
 14 13  1  0  0  0  0
 13 24  1  0  0  0  0
 15 14  1  0  0  0  0
 16 15  1  0  0  0  0
 17 16  2  0  0  0  0
 16 22  1  0  0  0  0
 18 17  1  0  0  0  0
 18 19  2  0  0  0  0
 20 18  1  0  0  0  0
 21 20  2  0  0  0  0
 22 21  1  0  0  0  0
 22 23  1  0  0  0  0
 24 22  1  0  0  0  0
 24 25  1  0  0  0  0
 26 24  1  0  0  0  0
 26 27  1  0  0  0  0
 28 26  1  0  0  0  0
 29 28  1  0  0  0  0
 29 30  1  0  0  0  0
 31 32  2  0  0  0  0
 31 33  1  0  0  0  0
 33 34  1  0  0  0  0
M  END
> <Inchi_key>
SNHRLVCMMWUAJD-UHFFFAOYSA-N

> <Source>
Mulliner

> <ID>
HT0272

> <H_MFHB>
0

> <CAS>
2152-44-5

> <Cholestasis>


> <Name>
betamethasone valerate

> <Class>
0


$$$$