

  -INDIGO-08031710012D

 20 21  0  0  0  0  0  0  0  0999 V2000
   -3.7125    3.5724    0.0000 C   0  0  0  0  0  0  0  0  0  0  0  0
   -2.9625    2.2733    0.0000 N   0  0  0  0  0  0  0  0  0  0  0  0
   -3.7125    0.9743    0.0000 C   0  0  0  0  0  0  0  0  0  0  0  0
   -1.4625    2.2733    0.0000 C   0  0  0  0  0  0  0  0  0  0  0  0
   -0.7125    3.5724    0.0000 C   0  0  0  0  0  0  0  0  0  0  0  0
    0.7875    3.5724    0.0000 O   0  0  0  0  0  0  0  0  0  0  0  0
    1.5375    4.8713    0.0000 C   0  0  0  0  0  0  0  0  0  0  0  0
    3.0375    4.8713    0.0000 C   0  0  0  0  0  0  0  0  0  0  0  0
    3.7875    6.1704    0.0000 C   0  0  0  0  0  0  0  0  0  0  0  0
    5.2875    6.1704    0.0000 C   0  0  0  0  0  0  0  0  0  0  0  0
    6.0375    4.8713    0.0000 C   0  0  0  0  0  0  0  0  0  0  0  0
    7.5375    4.8713    0.0000 Cl  0  0  0  0  0  0  0  0  0  0  0  0
    5.2875    3.5724    0.0000 C   0  0  0  0  0  0  0  0  0  0  0  0
    3.7875    3.5724    0.0000 C   0  0  0  0  0  0  0  0  0  0  0  0
    0.7875    6.1704    0.0000 C   0  0  0  0  0  0  0  0  0  0  0  0
    1.5375    7.4695    0.0000 C   0  0  0  0  0  0  0  0  0  0  0  0
    0.7875    8.7685    0.0000 C   0  0  0  0  0  0  0  0  0  0  0  0
   -0.7125    8.7685    0.0000 C   0  0  0  0  0  0  0  0  0  0  0  0
   -1.4625    7.4695    0.0000 C   0  0  0  0  0  0  0  0  0  0  0  0
   -0.7125    6.1704    0.0000 N   0  0  0  0  0  0  0  0  0  0  0  0
  1  2  1  0  0  0  0
  2  3  1  0  0  0  0
  2  4  1  0  0  0  0
  4  5  1  0  0  0  0
  5  6  1  0  0  0  0
  6  7  1  0  0  0  0
  7  8  1  0  0  0  0
  7 15  1  0  0  0  0
  9  8  2  0  0  0  0
  8 14  1  0  0  0  0
 10  9  1  0  0  0  0
 11 10  2  0  0  0  0
 11 12  1  0  0  0  0
 13 11  1  0  0  0  0
 14 13  2  0  0  0  0
 16 15  2  0  0  0  0
 15 20  1  0  0  0  0
 17 16  1  0  0  0  0
 18 17  2  0  0  0  0
 19 18  1  0  0  0  0
 20 19  2  0  0  0  0
M  END
> <Inchi_key>
OJFSXZCBGQGRNV-UHFFFAOYSA-N

> <Source>
Mulliner , Kotsampasakou

> <ID>
EK0091;HT0379

> <H_MFHB>
0

> <CAS>


> <Cholestasis>
0

> <Name>
carbinoxamine

> <Class>
0


$$$$