

  -INDIGO-08031709442D

 10  9  0  0  0  0  0  0  0  0999 V2000
    3.2838   -0.8799    0.0000 O   0  0  0  0  0  0  0  0  0  0  0  0
    1.9849   -0.1299    0.0000 C   0  0  0  0  0  0  0  0  0  0  0  0
    0.6858   -0.8799    0.0000 C   0  0  0  0  0  0  0  0  0  0  0  0
   -0.6133   -0.1299    0.0000 N   0  0  0  0  0  0  0  0  0  0  0  0
   -1.9123    0.6201    0.0000 C   0  0  0  0  0  0  0  0  0  0  0  0
    0.1367    1.1691    0.0000 C   0  0  0  0  0  0  0  0  0  0  0  0
   -1.3633   -1.4289    0.0000 C   0  0  0  0  0  0  0  0  0  0  0  0
    4.5829   -0.1299    0.0000 C   0  0  0  0  0  0  0  0  0  0  0  0
    4.5829    1.3701    0.0000 O   0  0  0  0  0  0  0  0  0  0  0  0
    5.8819   -0.8799    0.0000 N   0  0  0  0  0  0  0  0  0  0  0  0
  1  2  1  0  0  0  0
  1  8  1  0  0  0  0
  2  3  1  0  0  0  0
  3  4  1  0  0  0  0
  4  5  1  0  0  0  0
  4  6  1  0  0  0  0
  4  7  1  0  0  0  0
  8  9  1  0  0  0  0
  8 10  2  0  0  0  0
M  CHG  2   4   1   9  -1
M  END
> <Inchi_key>
VPJXQGSRWJZDOB-UHFFFAOYSA-N

> <Source>
Kotsampasakou

> <ID>
EK0086

> <H_MFHB>


> <CAS>


> <Cholestasis>
0

> <Name>
carbachol

> <Class>
0


$$$$