

  -INDIGO-08031710012D

 25 30  0  0  0  0  0  0  0  0999 V2000
    1.3397   -5.2670    0.0000 O   0  0  0  0  0  0  0  0  0  0  0  0
    2.6575   -4.5503    0.0000 C   0  0  0  0  0  0  0  0  0  0  0  0
    3.8786   -5.2988    0.0000 C   0  0  0  0  0  0  0  0  0  0  0  0
    5.1349   -4.6113    0.0000 C   0  0  0  0  0  0  0  0  0  0  0  0
    5.1718   -3.1859    0.0000 C   0  0  0  0  0  0  0  0  0  0  0  0
    6.4364   -2.4966    0.0000 C   0  0  0  0  0  0  0  0  0  0  0  0
    6.4822   -1.0614    0.0000 C   0  0  0  0  0  0  0  0  0  0  0  0
    7.8907   -0.7401    0.0000 N   0  0  0  0  0  0  0  0  0  0  0  0
    9.1089    0.1350    0.0000 C   0  0  0  0  0  0  0  0  0  0  0  0
   10.4760   -0.4824    0.0000 C   0  0  0  0  0  0  0  0  0  0  0  0
   11.3512   -1.7007    0.0000 C   0  0  0  0  0  0  0  0  0  0  0  0
   11.9686   -0.3337    0.0000 C   0  0  0  0  0  0  0  0  0  0  0  0
    7.1387   -1.9669    0.0000 C   0  0  0  0  0  0  0  0  0  0  0  0
    4.9887   -2.0605    0.0000 C   0  0  0  0  0  0  0  0  0  0  0  0
    3.9911   -0.9978    0.0000 C   0  0  0  0  0  0  0  0  0  0  0  0
    2.7723   -0.2566    0.0000 C   0  0  0  0  0  0  0  0  0  0  0  0
    1.6702   -1.6429    0.0000 O   0  0  0  0  0  0  0  0  0  0  0  0
    2.6927   -3.1144    0.0000 C   0  0  0  0  0  0  0  0  0  0  0  0
    3.9506   -2.4373    0.0000 C   0  0  0  0  0  0  0  0  0  0  0  0
    2.8025    1.1757    0.0000 C   0  0  0  0  0  0  0  0  0  0  0  0
    1.5204    1.9540    0.0000 C   0  0  0  0  0  0  0  0  0  0  0  0
    4.0614    1.8648    0.0000 C   0  0  0  0  0  0  0  0  0  0  0  0
    5.2899    1.1205    0.0000 C   0  0  0  0  0  0  0  0  0  0  0  0
    5.2499   -0.3089    0.0000 C   0  0  0  0  0  0  0  0  0  0  0  0
    6.5705    0.4020    0.0000 O   0  0  0  0  0  0  0  0  0  0  0  0
  1  2  1  0  0  0  0
  3  2  2  0  0  0  0
  2 18  1  0  0  0  0
  4  3  1  0  0  0  0
  5  4  2  0  0  0  0
  6  5  1  0  0  0  0
  5 19  1  0  0  0  0
  7  6  1  0  0  0  0
  7  8  1  0  0  0  0
 24  7  1  0  0  0  0
  8  9  1  0  0  0  0
  8 13  1  0  0  0  0
  9 10  1  0  0  0  0
 11 10  1  0  0  0  0
 10 12  1  0  0  0  0
 12 11  1  0  0  0  0
 13 14  1  0  0  0  0
 14 15  1  0  0  0  0
 16 15  1  0  0  0  0
 19 15  1  0  0  0  0
 15 24  1  0  0  0  0
 16 17  1  0  0  0  0
 20 16  1  0  0  0  0
 17 18  1  0  0  0  0
 18 19  2  0  0  0  0
 20 21  2  0  0  0  0
 22 20  1  0  0  0  0
 23 22  1  0  0  0  0
 24 23  1  0  0  0  0
 24 25  1  0  0  0  0
M  END
> <Inchi_key>
WJBLNOPPDWQMCH-UHFFFAOYSA-N

> <Source>
Mulliner , Kotsampasakou

> <ID>
EK0371;HT1457

> <H_MFHB>
0

> <CAS>


> <Cholestasis>
0

> <Name>
nalmefene;nalmefene hydrochloride

> <Class>
0


$$$$