
  -INDIGO-08031710012D

 12 12  0  0  0  0  0  0  0  0999 V2000
    5.7141    1.2141    0.0000 N   0  0  0  0  0  0  0  0  0  0  0  0
    5.7141    2.7141    0.0000 C   0  0  0  0  0  0  0  0  0  0  0  0
    7.0131    3.4641    0.0000 N   0  0  0  0  0  0  0  0  0  0  0  0
    4.4151    3.4641    0.0000 N   0  0  0  0  0  0  0  0  0  0  0  0
    3.1159    2.7141    0.0000 C   0  0  0  0  0  0  0  0  0  0  0  0
    1.8171    3.4641    0.0000 C   0  0  0  0  0  0  0  0  0  0  0  0
    1.8171    4.9641    0.0000 C   0  0  0  0  0  0  0  0  0  0  0  0
    0.5179    5.7141    0.0000 C   0  0  0  0  0  0  0  0  0  0  0  0
   -0.7811    4.9641    0.0000 C   0  0  0  0  0  0  0  0  0  0  0  0
   -0.7811    3.4641    0.0000 C   0  0  0  0  0  0  0  0  0  0  0  0
   -2.0801    2.7141    0.0000 I   0  0  0  0  0  0  0  0  0  0  0  0
    0.5179    2.7141    0.0000 C   0  0  0  0  0  0  0  0  0  0  0  0
  1  2  1  0  0  0  0
  2  3  2  0  0  0  0
  2  4  1  0  0  0  0
  4  5  1  0  0  0  0
  5  6  1  0  0  0  0
  7  6  2  0  0  0  0
  6 12  1  0  0  0  0
  8  7  1  0  0  0  0
  9  8  2  0  0  0  0
 10  9  1  0  0  0  0
 10 11  1  0  0  0  0
 12 10  2  0  0  0  0
M  END
> <Inchi_key>
PDWUPXJEEYOOTR-UHFFFAOYSA-N

> <Source>
Mulliner

> <ID>
HT3224

> <H_MFHB>
0

> <CAS>


> <Cholestasis>


> <Name>
iobenguane sulfate

> <Class>
0

$$$$