

  -INDIGO-08031710012D

 14 14  0  0  0  0  0  0  0  0999 V2000
    8.0575    2.4804    0.0000 C   0  0  0  0  0  0  0  0  0  0  0  0
    6.7584    3.2304    0.0000 C   0  0  0  0  0  0  0  0  0  0  0  0
    6.7584    4.7304    0.0000 N   0  0  0  0  0  0  0  0  0  0  0  0
    5.4594    2.4804    0.0000 C   0  0  0  0  0  0  0  0  0  0  0  0
    5.4594    0.9804    0.0000 O   0  0  0  0  0  0  0  0  0  0  0  0
    4.1605    3.2304    0.0000 N   0  0  0  0  0  0  0  0  0  0  0  0
    2.8612    2.4804    0.0000 C   0  0  0  0  0  0  0  0  0  0  0  0
    2.8612    0.9804    0.0000 C   0  0  0  0  0  0  0  0  0  0  0  0
    4.1605    0.2304    0.0000 C   0  0  0  0  0  0  0  0  0  0  0  0
    1.5623    0.2304    0.0000 C   0  0  0  0  0  0  0  0  0  0  0  0
    0.2633    0.9804    0.0000 C   0  0  0  0  0  0  0  0  0  0  0  0
    0.2633    2.4804    0.0000 C   0  0  0  0  0  0  0  0  0  0  0  0
    1.5623    3.2304    0.0000 C   0  0  0  0  0  0  0  0  0  0  0  0
    1.5623    4.7304    0.0000 C   0  0  0  0  0  0  0  0  0  0  0  0
  1  2  1  0  0  0  0
  2  3  1  0  0  0  0
  2  4  1  0  0  0  0
  4  5  2  0  0  0  0
  4  6  1  0  0  0  0
  6  7  1  0  0  0  0
  8  7  2  0  0  0  0
  7 13  1  0  0  0  0
  8  9  1  0  0  0  0
 10  8  1  0  0  0  0
 11 10  2  0  0  0  0
 12 11  1  0  0  0  0
 13 12  2  0  0  0  0
 13 14  1  0  0  0  0
M  END
> <Inchi_key>
BUJAGSGYPOAWEI-UHFFFAOYSA-N

> <Source>
Mulliner

> <ID>
HT2074

> <H_MFHB>
0

> <CAS>


> <Cholestasis>


> <Name>
tocainide hydrochloride;tocainide

> <Class>
0


$$$$