

  -INDIGO-08031710012D

 17 17  0  0  0  0  0  0  0  0999 V2000
    8.4965   -4.9055    0.0000 C   0  0  0  0  0  0  0  0  0  0  0  0
    7.7465   -3.6064    0.0000 C   0  0  0  0  0  0  0  0  0  0  0  0
    6.2465   -3.6064    0.0000 C   0  0  0  0  0  0  0  0  0  0  0  0
    5.4966   -2.3074    0.0000 C   0  0  0  0  0  0  0  0  0  0  0  0
    6.2465   -1.0084    0.0000 C   0  0  0  0  0  0  0  0  0  0  0  0
    3.9965   -2.3074    0.0000 C   0  0  0  0  0  0  0  0  0  0  0  0
    4.7465   -1.0084    0.0000 C   0  0  0  0  0  0  0  0  0  0  0  0
    3.9965    0.2907    0.0000 C   0  0  0  0  0  0  0  0  0  0  0  0
    4.7465    1.5897    0.0000 C   0  0  0  0  0  0  0  0  0  0  0  0
    2.6975   -1.5574    0.0000 C   0  0  0  0  0  0  0  0  0  0  0  0
    2.6975   -0.0574    0.0000 O   0  0  0  0  0  0  0  0  0  0  0  0
    1.3985   -2.3074    0.0000 N   0  0  0  0  0  0  0  0  0  0  0  0
    1.3985   -3.8074    0.0000 C   0  0  0  0  0  0  0  0  0  0  0  0
    0.0994   -4.5574    0.0000 S   0  0  0  0  0  0  0  0  0  0  0  0
    2.6975   -4.5574    0.0000 N   0  0  0  0  0  0  0  0  0  0  0  0
    3.9965   -3.8074    0.0000 C   0  0  0  0  0  0  0  0  0  0  0  0
    5.2956   -4.5574    0.0000 O   0  0  0  0  0  0  0  0  0  0  0  0
  1  2  1  0  0  0  0
  2  3  1  0  0  0  0
  3  4  1  0  0  0  0
  4  5  1  0  0  0  0
  4  6  1  0  0  0  0
  6  7  1  0  0  0  0
 10  6  1  0  0  0  0
  6 16  1  0  0  0  0
  7  8  1  0  0  0  0
  8  9  2  0  0  0  0
 10 11  2  0  0  0  0
 12 10  1  0  0  0  0
 13 12  1  0  0  0  0
 13 14  2  0  0  0  0
 15 13  1  0  0  0  0
 16 15  1  0  0  0  0
 16 17  2  0  0  0  0
M  END
> <Inchi_key>
XLOMZPUITCYLMJ-UHFFFAOYSA-N

> <Source>
Mulliner

> <ID>
HT2038

> <H_MFHB>
0

> <CAS>


> <Cholestasis>


> <Name>
thiamylal

> <Class>
0


$$$$