
  -INDIGO-08031710012D

  7  6  0  0  0  0  0  0  0  0999 V2000
    0.8361    0.8361    0.0000 O   0  0  0  0  0  0  0  0  0  0  0  0
    0.8361   -0.6639    0.0000 C   0  0  0  0  0  0  0  0  0  0  0  0
    2.1352   -1.4139    0.0000 C   0  0  0  0  0  0  0  0  0  0  0  0
    3.4342   -0.6639    0.0000 C   0  0  0  0  0  0  0  0  0  0  0  0
    4.7332    0.0861    0.0000 N   0  0  0  0  0  0  0  0  0  0  0  0
   -0.4629   -1.4139    0.0000 C   0  0  0  0  0  0  0  0  0  0  0  0
   -1.7619   -0.6639    0.0000 C   0  0  0  0  0  0  0  0  0  0  0  0
  1  2  1  0  0  0  0
  2  3  1  0  0  0  0
  2  6  1  0  0  0  0
  3  4  1  0  0  0  0
  4  5  3  0  0  0  0
  6  7  2  0  0  0  0
M  END
> <Inchi_key>
PBCLOVRWBLGJQA-UHFFFAOYSA-N

> <Source>
Mulliner

> <ID>
HT0026

> <H_MFHB>
0

> <CAS>


> <Cholestasis>


> <Name>
1-cyano-2-hydroxy-3-butene

> <Class>
0

$$$$