
  -INDIGO-08031710012D

 17 19  0  0  0  0  0  0  0  0999 V2000
    1.8424    1.8424    0.0000 Br  0  0  0  0  0  0  0  0  0  0  0  0
    1.8424    0.3424    0.0000 C   0  0  0  0  0  0  0  0  0  0  0  0
    3.1416   -0.4076    0.0000 C   0  0  0  0  0  0  0  0  0  0  0  0
    4.4405    0.3424    0.0000 N   0  0  0  0  0  0  0  0  0  0  0  0
    5.7397   -0.4076    0.0000 C   0  0  0  0  0  0  0  0  0  0  0  0
    5.8964   -1.8993    0.0000 N   0  0  0  0  0  0  0  0  0  0  0  0
    7.3636   -2.2112    0.0000 C   0  0  0  0  0  0  0  0  0  0  0  0
    8.1136   -0.9122    0.0000 C   0  0  0  0  0  0  0  0  0  0  0  0
    7.1099    0.2025    0.0000 N   0  0  0  0  0  0  0  0  0  0  0  0
    3.1416   -1.9076    0.0000 C   0  0  0  0  0  0  0  0  0  0  0  0
    1.8424   -2.6576    0.0000 C   0  0  0  0  0  0  0  0  0  0  0  0
    0.5434   -1.9076    0.0000 C   0  0  0  0  0  0  0  0  0  0  0  0
   -0.7556   -2.6576    0.0000 N   0  0  0  0  0  0  0  0  0  0  0  0
   -2.0547   -1.9076    0.0000 C   0  0  0  0  0  0  0  0  0  0  0  0
   -2.0547   -0.4076    0.0000 C   0  0  0  0  0  0  0  0  0  0  0  0
   -0.7556    0.3424    0.0000 N   0  0  0  0  0  0  0  0  0  0  0  0
    0.5434   -0.4076    0.0000 C   0  0  0  0  0  0  0  0  0  0  0  0
  1  2  1  0  0  0  0
  3  2  2  0  0  0  0
  2 17  1  0  0  0  0
  3  4  1  0  0  0  0
 10  3  1  0  0  0  0
  4  5  1  0  0  0  0
  6  5  2  0  0  0  0
  5  9  1  0  0  0  0
  7  6  1  0  0  0  0
  8  7  1  0  0  0  0
  9  8  1  0  0  0  0
 11 10  2  0  0  0  0
 12 11  1  0  0  0  0
 13 12  1  0  0  0  0
 12 17  2  0  0  0  0
 14 13  2  0  0  0  0
 15 14  1  0  0  0  0
 16 15  2  0  0  0  0
 17 16  1  0  0  0  0
M  END
> <Inchi_key>
XYLJNLCSTIOKRM-UHFFFAOYSA-N

> <Source>
Mulliner , Kotsampasakou

> <ID>
EK0069;HT0304

> <H_MFHB>
0

> <CAS>


> <Cholestasis>
0

> <Name>
brimonidine tartrate;brimonidine

> <Class>
0

$$$$