
  -INDIGO-08031710012D

 16 18  0  0  0  0  0  0  0  0999 V2000
   -0.0399   -2.7739    0.0000 N   0  0  0  0  0  0  0  0  0  0  0  0
    1.2592   -2.0239    0.0000 C   0  0  0  0  0  0  0  0  0  0  0  0
    1.2592   -0.5239    0.0000 C   0  0  0  0  0  0  0  0  0  0  0  0
    2.5582    0.2261    0.0000 C   0  0  0  0  0  0  0  0  0  0  0  0
    3.8573   -0.5239    0.0000 C   0  0  0  0  0  0  0  0  0  0  0  0
    5.1562    0.2261    0.0000 C   0  0  0  0  0  0  0  0  0  0  0  0
    6.4552   -0.5239    0.0000 C   0  0  0  0  0  0  0  0  0  0  0  0
    7.7543    0.2261    0.0000 C   0  0  0  0  0  0  0  0  0  0  0  0
    9.0533   -0.5239    0.0000 C   0  0  0  0  0  0  0  0  0  0  0  0
    9.0533   -2.0239    0.0000 C   0  0  0  0  0  0  0  0  0  0  0  0
   10.3524   -2.7739    0.0000 N   0  0  0  0  0  0  0  0  0  0  0  0
    7.7543   -2.7739    0.0000 C   0  0  0  0  0  0  0  0  0  0  0  0
    6.4552   -2.0239    0.0000 C   0  0  0  0  0  0  0  0  0  0  0  0
    5.1562   -2.7739    0.0000 N   0  0  0  0  0  0  0  0  0  0  0  0
    3.8573   -2.0239    0.0000 C   0  0  0  0  0  0  0  0  0  0  0  0
    2.5582   -2.7739    0.0000 C   0  0  0  0  0  0  0  0  0  0  0  0
  1  2  1  0  0  0  0
  3  2  2  0  0  0  0
  2 16  1  0  0  0  0
  4  3  1  0  0  0  0
  5  4  2  0  0  0  0
  6  5  1  0  0  0  0
  5 15  1  0  0  0  0
  7  6  2  0  0  0  0
  8  7  1  0  0  0  0
  7 13  1  0  0  0  0
  9  8  2  0  0  0  0
 10  9  1  0  0  0  0
 10 11  1  0  0  0  0
 12 10  2  0  0  0  0
 13 12  1  0  0  0  0
 14 13  2  0  0  0  0
 15 14  1  0  0  0  0
 16 15  2  0  0  0  0
M  END
> <Inchi_key>
WDVSHHCDHLJJJR-UHFFFAOYSA-N

> <Source>
Mulliner

> <ID>
HT1749

> <H_MFHB>
0

> <CAS>


> <Cholestasis>


> <Name>
proflavine

> <Class>
0

$$$$