

  -INDIGO-08031710012D

 22 25  0  0  0  0  0  0  0  0999 V2000
   -1.7234   -5.2141    0.0000 C   0  0  0  0  0  0  0  0  0  0  0  0
   -1.2404   -3.7940    0.0000 C   0  0  0  0  0  0  0  0  0  0  0  0
   -2.7211   -4.0343    0.0000 O   0  0  0  0  0  0  0  0  0  0  0  0
   -1.4029   -2.3028    0.0000 C   0  0  0  0  0  0  0  0  0  0  0  0
   -0.0348   -1.6876    0.0000 C   0  0  0  0  0  0  0  0  0  0  0  0
    0.9731   -2.7985    0.0000 C   0  0  0  0  0  0  0  0  0  0  0  0
    2.4729   -2.7928    0.0000 C   0  0  0  0  0  0  0  0  0  0  0  0
    3.2181   -1.4910    0.0000 C   0  0  0  0  0  0  0  0  0  0  0  0
    4.7181   -1.4853    0.0000 C   0  0  0  0  0  0  0  0  0  0  0  0
    5.4730   -2.7815    0.0000 C   0  0  0  0  0  0  0  0  0  0  0  0
    6.9730   -2.7759    0.0000 C   0  0  0  0  0  0  0  0  0  0  0  0
    7.7279   -4.0721    0.0000 C   0  0  0  0  0  0  0  0  0  0  0  0
    9.2279   -4.0664    0.0000 O   0  0  0  0  0  0  0  0  0  0  0  0
    6.9829   -5.3739    0.0000 C   0  0  0  0  0  0  0  0  0  0  0  0
    5.4828   -5.3796    0.0000 C   0  0  0  0  0  0  0  0  0  0  0  0
    4.7278   -4.0834    0.0000 C   0  0  0  0  0  0  0  0  0  0  0  0
    3.9828   -5.3852    0.0000 C   0  0  0  0  0  0  0  0  0  0  0  0
    3.2280   -4.0890    0.0000 C   0  0  0  0  0  0  0  0  0  0  0  0
    2.4828   -5.3909    0.0000 C   0  0  0  0  0  0  0  0  0  0  0  0
    0.9828   -5.3966    0.0000 C   0  0  0  0  0  0  0  0  0  0  0  0
    0.2279   -4.1004    0.0000 C   0  0  0  0  0  0  0  0  0  0  0  0
   -0.6278   -5.3323    0.0000 C   0  0  0  0  0  0  0  0  0  0  0  0
  1  2  1  0  0  0  0
  2  3  1  0  0  0  0
  4  2  1  0  0  0  0
  2 21  1  0  0  0  0
  5  4  1  0  0  0  0
  6  5  1  0  0  0  0
  7  6  1  0  0  0  0
  6 21  1  0  0  0  0
  8  7  1  0  0  0  0
  7 18  1  0  0  0  0
  9  8  1  0  0  0  0
 10  9  2  0  0  0  0
 11 10  1  0  0  0  0
 10 16  1  0  0  0  0
 12 11  1  0  0  0  0
 12 13  1  0  0  0  0
 14 12  1  0  0  0  0
 15 14  1  0  0  0  0
 16 15  1  0  0  0  0
 16 17  1  0  0  0  0
 18 16  1  0  0  0  0
 19 18  1  0  0  0  0
 20 19  1  0  0  0  0
 21 20  1  0  0  0  0
 21 22  1  0  0  0  0
M  END
> <Inchi_key>
WRWBCPJQPDHXTJ-UHFFFAOYSA-N

> <Source>
Mulliner

> <ID>
HT3381

> <H_MFHB>
0

> <CAS>


> <Cholestasis>


> <Name>


> <Class>
0


$$$$