
  -INDIGO-08031710012D

 26 30  0  0  0  0  0  0  0  0999 V2000
    4.9204   -1.6704    0.0000 O   0  0  0  0  0  0  0  0  0  0  0  0
    3.8598   -0.6097    0.0000 C   0  0  0  0  0  0  0  0  0  0  0  0
    2.3783   -0.8444    0.0000 N   0  0  0  0  0  0  0  0  0  0  0  0
    1.6974   -2.1810    0.0000 C   0  0  0  0  0  0  0  0  0  0  0  0
    0.1993   -2.2594    0.0000 C   0  0  0  0  0  0  0  0  0  0  0  0
   -0.6176   -1.0013    0.0000 C   0  0  0  0  0  0  0  0  0  0  0  0
   -2.1157   -1.0799    0.0000 C   0  0  0  0  0  0  0  0  0  0  0  0
   -2.7966   -2.4164    0.0000 C   0  0  0  0  0  0  0  0  0  0  0  0
   -1.9796   -3.6744    0.0000 C   0  0  0  0  0  0  0  0  0  0  0  0
   -0.4818   -3.5958    0.0000 C   0  0  0  0  0  0  0  0  0  0  0  0
    1.6974    0.4921    0.0000 C   0  0  0  0  0  0  0  0  0  0  0  0
    0.3608    1.1730    0.0000 C   0  0  0  0  0  0  0  0  0  0  0  0
    0.5955    2.6546    0.0000 S   0  0  0  0  0  0  0  0  0  0  0  0
   -0.0857    3.9911    0.0000 C   0  0  0  0  0  0  0  0  0  0  0  0
    0.9752    5.0518    0.0000 C   0  0  0  0  0  0  0  0  0  0  0  0
    2.3116    4.3709    0.0000 C   0  0  0  0  0  0  0  0  0  0  0  0
    2.0769    2.8893    0.0000 C   0  0  0  0  0  0  0  0  0  0  0  0
    2.7578    1.5528    0.0000 C   0  0  0  0  0  0  0  0  0  0  0  0
    4.0944    0.8719    0.0000 N   0  0  0  0  0  0  0  0  0  0  0  0
    5.4310    1.5528    0.0000 C   0  0  0  0  0  0  0  0  0  0  0  0
    6.6890    0.7358    0.0000 C   0  0  0  0  0  0  0  0  0  0  0  0
    6.6105   -0.7621    0.0000 C   0  0  0  0  0  0  0  0  0  0  0  0
    7.8686   -1.5791    0.0000 C   0  0  0  0  0  0  0  0  0  0  0  0
    9.2050   -0.8982    0.0000 C   0  0  0  0  0  0  0  0  0  0  0  0
    9.2835    0.5998    0.0000 C   0  0  0  0  0  0  0  0  0  0  0  0
    8.0254    1.4168    0.0000 C   0  0  0  0  0  0  0  0  0  0  0  0
  1  2  2  0  0  0  0
  3  2  1  0  0  0  0
  2 19  1  0  0  0  0
  3  4  1  0  0  0  0
 11  3  1  0  0  0  0
  4  5  1  0  0  0  0
  6  5  2  0  0  0  0
  5 10  1  0  0  0  0
  7  6  1  0  0  0  0
  8  7  2  0  0  0  0
  9  8  1  0  0  0  0
 10  9  2  0  0  0  0
 12 11  1  0  0  0  0
 11 18  1  0  0  0  0
 13 12  1  0  0  0  0
 14 13  1  0  0  0  0
 13 17  1  0  0  0  0
 15 14  1  0  0  0  0
 16 15  1  0  0  0  0
 17 16  1  0  0  0  0
 18 17  1  0  0  0  0
 19 18  1  0  0  0  0
 19 20  1  0  0  0  0
 20 21  1  0  0  0  0
 22 21  2  0  0  0  0
 21 26  1  0  0  0  0
 23 22  1  0  0  0  0
 24 23  2  0  0  0  0
 25 24  1  0  0  0  0
 26 25  2  0  0  0  0
M  CHG  1  13   1
M  END
> <Inchi_key>
CHQOEHPMXSHGCL-UHFFFAOYSA-N

> <Source>
Mulliner

> <ID>
HT2125

> <H_MFHB>
0

> <CAS>


> <Cholestasis>


> <Name>
trimethaphan

> <Class>
0

$$$$