

  -INDIGO-08031710012D

 20 22  0  0  0  0  0  0  0  0999 V2000
    3.6207    3.6206    0.0000 C   0  0  0  0  0  0  0  0  0  0  0  0
    3.6207    2.1206    0.0000 C   0  0  0  0  0  0  0  0  0  0  0  0
    2.3216    1.3707    0.0000 C   0  0  0  0  0  0  0  0  0  0  0  0
    1.0225    2.1206    0.0000 N   0  0  0  0  0  0  0  0  0  0  0  0
    1.0225    3.6206    0.0000 C   0  0  0  0  0  0  0  0  0  0  0  0
    2.3216    4.3707    0.0000 C   0  0  0  0  0  0  0  0  0  0  0  0
    2.3216    5.8707    0.0000 C   0  0  0  0  0  0  0  0  0  0  0  0
    1.0225    6.6206    0.0000 C   0  0  0  0  0  0  0  0  0  0  0  0
   -0.2766    5.8707    0.0000 C   0  0  0  0  0  0  0  0  0  0  0  0
   -0.2766    4.3707    0.0000 C   0  0  0  0  0  0  0  0  0  0  0  0
   -1.5754    3.6206    0.0000 S   0  0  0  0  0  0  0  0  0  0  0  0
   -1.5754    2.1206    0.0000 C   0  0  0  0  0  0  0  0  0  0  0  0
   -2.8746    1.3707    0.0000 C   0  0  0  0  0  0  0  0  0  0  0  0
   -2.8746   -0.1293    0.0000 C   0  0  0  0  0  0  0  0  0  0  0  0
   -1.5754   -0.8794    0.0000 C   0  0  0  0  0  0  0  0  0  0  0  0
   -0.2766   -0.1293    0.0000 N   0  0  0  0  0  0  0  0  0  0  0  0
   -0.2766    1.3707    0.0000 C   0  0  0  0  0  0  0  0  0  0  0  0
    4.9197    1.3707    0.0000 N   0  0  0  0  0  0  0  0  0  0  0  0
    6.2187    2.1206    0.0000 C   0  0  0  0  0  0  0  0  0  0  0  0
    4.9197   -0.1293    0.0000 C   0  0  0  0  0  0  0  0  0  0  0  0
  1  2  1  0  0  0  0
  2  3  1  0  0  0  0
  2 18  1  0  0  0  0
  3  4  1  0  0  0  0
  5  4  1  0  0  0  0
  4 17  1  0  0  0  0
  6  5  1  0  0  0  0
  5 10  2  0  0  0  0
  7  6  2  0  0  0  0
  8  7  1  0  0  0  0
  9  8  2  0  0  0  0
 10  9  1  0  0  0  0
 11 10  1  0  0  0  0
 12 11  1  0  0  0  0
 13 12  1  0  0  0  0
 12 17  2  0  0  0  0
 14 13  2  0  0  0  0
 15 14  1  0  0  0  0
 16 15  2  0  0  0  0
 17 16  1  0  0  0  0
 18 19  1  0  0  0  0
 18 20  1  0  0  0  0
M  END
> <Inchi_key>
OQJBSDFFQWMKBQ-UHFFFAOYSA-N

> <Source>
Mulliner

> <ID>
HT1142

> <H_MFHB>
0

> <CAS>


> <Cholestasis>


> <Name>
isothipendyl

> <Class>
0


$$$$