

  -INDIGO-08031710012D

 11 10  0  0  0  0  0  0  0  0999 V2000
    0.0000    0.0000    0.0000 F   0  0  0  0  0  0  0  0  0  0  0  0
    1.5000    0.0000    0.0000 C   0  0  0  0  0  0  0  0  0  0  0  0
    1.5000    1.5000    0.0000 F   0  0  0  0  0  0  0  0  0  0  0  0
    1.5000   -1.5000    0.0000 F   0  0  0  0  0  0  0  0  0  0  0  0
    3.0000    0.0000    0.0000 C   0  0  0  0  0  0  0  0  0  0  0  0
    3.0000   -1.5000    0.0000 F   0  0  0  0  0  0  0  0  0  0  0  0
    3.0000    1.5000    0.0000 F   0  0  0  0  0  0  0  0  0  0  0  0
    4.5000    0.0000    0.0000 C   0  0  0  0  0  0  0  0  0  0  0  0
    4.5000   -1.5000    0.0000 F   0  0  0  0  0  0  0  0  0  0  0  0
    4.5000    1.5000    0.0000 F   0  0  0  0  0  0  0  0  0  0  0  0
    6.0000    0.0000    0.0000 F   0  0  0  0  0  0  0  0  0  0  0  0
  1  2  1  0  0  0  0
  2  3  1  0  0  0  0
  2  4  1  0  0  0  0
  2  5  1  0  0  0  0
  5  6  1  0  0  0  0
  5  7  1  0  0  0  0
  5  8  1  0  0  0  0
  8  9  1  0  0  0  0
  8 10  1  0  0  0  0
  8 11  1  0  0  0  0
M  END
> <Inchi_key>
QYSGYZVSCZSLHT-UHFFFAOYSA-N

> <Source>
Mulliner

> <ID>
HT1633

> <H_MFHB>
0

> <CAS>


> <Cholestasis>


> <Name>
perflutren

> <Class>
0


$$$$