
  -INDIGO-08031710012D

 18 18  0  0  0  0  0  0  0  0999 V2000
   12.0347    3.2247    0.0000 C   0  0  0  0  0  0  0  0  0  0  0  0
   10.7356    2.4747    0.0000 C   0  0  0  0  0  0  0  0  0  0  0  0
   10.7356    0.9747    0.0000 N   0  0  0  0  0  0  0  0  0  0  0  0
   12.0347    0.2247    0.0000 C   0  0  0  0  0  0  0  0  0  0  0  0
   12.0347   -1.2753    0.0000 C   0  0  0  0  0  0  0  0  0  0  0  0
    9.4367    0.2247    0.0000 C   0  0  0  0  0  0  0  0  0  0  0  0
    8.1376    0.9747    0.0000 C   0  0  0  0  0  0  0  0  0  0  0  0
    6.8385    0.2247    0.0000 O   0  0  0  0  0  0  0  0  0  0  0  0
    5.5395    0.9747    0.0000 C   0  0  0  0  0  0  0  0  0  0  0  0
    5.5395    2.4747    0.0000 O   0  0  0  0  0  0  0  0  0  0  0  0
    4.2404    0.2247    0.0000 C   0  0  0  0  0  0  0  0  0  0  0  0
    4.2404   -1.2753    0.0000 C   0  0  0  0  0  0  0  0  0  0  0  0
    2.9413   -2.0253    0.0000 C   0  0  0  0  0  0  0  0  0  0  0  0
    1.6424   -1.2753    0.0000 C   0  0  0  0  0  0  0  0  0  0  0  0
    0.3433   -2.0253    0.0000 N   0  0  0  0  0  0  0  0  0  0  0  0
    1.6424    0.2247    0.0000 C   0  0  0  0  0  0  0  0  0  0  0  0
    2.9413    0.9747    0.0000 C   0  0  0  0  0  0  0  0  0  0  0  0
    2.9413    2.4747    0.0000 Cl  0  0  0  0  0  0  0  0  0  0  0  0
  1  2  1  0  0  0  0
  2  3  1  0  0  0  0
  3  4  1  0  0  0  0
  3  6  1  0  0  0  0
  4  5  1  0  0  0  0
  6  7  1  0  0  0  0
  7  8  1  0  0  0  0
  8  9  1  0  0  0  0
  9 10  2  0  0  0  0
  9 11  1  0  0  0  0
 12 11  2  0  0  0  0
 11 17  1  0  0  0  0
 13 12  1  0  0  0  0
 14 13  2  0  0  0  0
 14 15  1  0  0  0  0
 16 14  1  0  0  0  0
 17 16  2  0  0  0  0
 17 18  1  0  0  0  0
M  END
> <Inchi_key>
VDANGULDQQJODZ-UHFFFAOYSA-N

> <Source>
Mulliner , Kotsampasakou

> <ID>
EK0118;HT0457

> <H_MFHB>
0

> <CAS>


> <Cholestasis>
0

> <Name>
chloroprocaine;2-chloroprocaine

> <Class>
0

$$$$