

  -INDIGO-08031710012D

 43 47  0  0  0  0  0  0  0  0999 V2000
    2.7803    7.3727    0.0000 C   0  0  0  0  0  0  0  0  0  0  0  0
    3.9069    6.3823    0.0000 C   0  0  0  0  0  0  0  0  0  0  0  0
    3.6125    4.9115    0.0000 O   0  0  0  0  0  0  0  0  0  0  0  0
    4.7387    3.9210    0.0000 N   0  0  0  0  0  0  0  0  0  0  0  0
    4.4442    2.4502    0.0000 C   0  0  0  0  0  0  0  0  0  0  0  0
    5.5708    1.4597    0.0000 C   0  0  0  0  0  0  0  0  0  0  0  0
    5.2764   -0.0111    0.0000 O   0  0  0  0  0  0  0  0  0  0  0  0
    6.9919    1.9402    0.0000 N   0  0  0  0  0  0  0  0  0  0  0  0
    8.1181    0.9496    0.0000 C   0  0  0  0  0  0  0  0  0  0  0  0
    9.6149    1.0458    0.0000 C   0  0  0  0  0  0  0  0  0  0  0  0
   10.8634    1.8774    0.0000 S   0  0  0  0  0  0  0  0  0  0  0  0
   12.2078    1.2124    0.0000 C   0  0  0  0  0  0  0  0  0  0  0  0
   12.3039   -0.2846    0.0000 C   0  0  0  0  0  0  0  0  0  0  0  0
   11.0558   -1.1162    0.0000 C   0  0  0  0  0  0  0  0  0  0  0  0
    9.7114   -0.4512    0.0000 N   0  0  0  0  0  0  0  0  0  0  0  0
    8.2145   -0.5472    0.0000 C   0  0  0  0  0  0  0  0  0  0  0  0
    7.2240   -1.6738    0.0000 O   0  0  0  0  0  0  0  0  0  0  0  0
   11.1519   -2.6132    0.0000 C   0  0  0  0  0  0  0  0  0  0  0  0
    9.9038   -3.4450    0.0000 O   0  0  0  0  0  0  0  0  0  0  0  0
   12.4963   -3.2784    0.0000 O   0  0  0  0  0  0  0  0  0  0  0  0
   13.6483   -0.9497    0.0000 S   0  0  0  0  0  0  0  0  0  0  0  0
   14.8967   -0.1181    0.0000 C   0  0  0  0  0  0  0  0  0  0  0  0
   16.3035   -0.6390    0.0000 N   0  0  0  0  0  0  0  0  0  0  0  0
   17.2337    0.5377    0.0000 C   0  0  0  0  0  0  0  0  0  0  0  0
   16.4019    1.7862    0.0000 C   0  0  0  0  0  0  0  0  0  0  0  0
   14.9575    1.3807    0.0000 S   0  0  0  0  0  0  0  0  0  0  0  0
   18.7321    0.4770    0.0000 C   0  0  0  0  0  0  0  0  0  0  0  0
   19.5345    1.7446    0.0000 C   0  0  0  0  0  0  0  0  0  0  0  0
   21.0329    1.6836    0.0000 C   0  0  0  0  0  0  0  0  0  0  0  0
   21.7298    0.3553    0.0000 N   0  0  0  0  0  0  0  0  0  0  0  0
   23.2286    0.2944    0.0000 C   0  0  0  0  0  0  0  0  0  0  0  0
   20.9278   -0.9122    0.0000 C   0  0  0  0  0  0  0  0  0  0  0  0
   19.4289   -0.8515    0.0000 C   0  0  0  0  0  0  0  0  0  0  0  0
    3.0232    1.9699    0.0000 C   0  0  0  0  0  0  0  0  0  0  0  0
    1.7993    2.8371    0.0000 N   0  0  0  0  0  0  0  0  0  0  0  0
    0.5962    1.9412    0.0000 S   0  0  0  0  0  0  0  0  0  0  0  0
    1.0767    0.5203    0.0000 C   0  0  0  0  0  0  0  0  0  0  0  0
    0.2092   -0.7036    0.0000 N   0  0  0  0  0  0  0  0  0  0  0  0
   -1.2840   -0.5644    0.0000 P   0  0  0  0  0  0  0  0  0  0  0  0
   -2.7777   -0.4253    0.0000 O   0  0  0  0  0  0  0  0  0  0  0  0
   -1.4233   -2.0579    0.0000 O   0  0  0  0  0  0  0  0  0  0  0  0
   -1.1451    0.9291    0.0000 O   0  0  0  0  0  0  0  0  0  0  0  0
    2.5767    0.5379    0.0000 N   0  0  0  0  0  0  0  0  0  0  0  0
  1  2  1  0  0  0  0
  2  3  1  0  0  0  0
  3  4  1  0  0  0  0
  4  5  2  0  0  0  0
  5  6  1  0  0  0  0
  5 34  1  0  0  0  0
  6  7  2  0  0  0  0
  6  8  1  0  0  0  0
  8  9  1  0  0  0  0
 10  9  1  0  0  0  0
  9 16  1  0  0  0  0
 11 10  1  0  0  0  0
 10 15  1  0  0  0  0
 12 11  1  0  0  0  0
 13 12  1  0  0  0  0
 14 13  2  0  0  0  0
 13 21  1  0  0  0  0
 15 14  1  0  0  0  0
 14 18  1  0  0  0  0
 16 15  1  0  0  0  0
 16 17  2  0  0  0  0
 18 19  2  0  0  0  0
 18 20  1  0  0  0  0
 21 22  1  0  0  0  0
 23 22  2  0  0  0  0
 22 26  1  0  0  0  0
 24 23  1  0  0  0  0
 25 24  2  0  0  0  0
 24 27  1  0  0  0  0
 26 25  1  0  0  0  0
 28 27  2  0  0  0  0
 27 33  1  0  0  0  0
 29 28  1  0  0  0  0
 30 29  2  0  0  0  0
 30 31  1  0  0  0  0
 32 30  1  0  0  0  0
 33 32  2  0  0  0  0
 35 34  2  0  0  0  0
 34 43  1  0  0  0  0
 36 35  1  0  0  0  0
 37 36  1  0  0  0  0
 37 38  1  0  0  0  0
 43 37  2  0  0  0  0
 38 39  2  0  0  0  0
 39 40  1  0  0  0  0
 39 41  1  0  0  0  0
 39 42  1  0  0  0  0
M  CHG  4  30   1  40  -1  41  -1  42  -1
M  END
> <Inchi_key>
CQFDZJUUQXPXOK-LGJNPRDNSA-N

> <Source>
Mulliner

> <ID>
HT0422

> <H_MFHB>
0

> <CAS>


> <Cholestasis>


> <Name>
ceftaroline fosamil

> <Class>
0


$$$$