
  -INDIGO-08031710012D

 34 36  0  0  0  0  0  0  0  0999 V2000
    6.1556  -10.6617    0.0000 C   0  0  0  0  0  0  0  0  0  0  0  0
    6.9054   -9.3625    0.0000 C   0  0  0  0  0  0  0  0  0  0  0  0
    6.1556   -8.0634    0.0000 C   0  0  0  0  0  0  0  0  0  0  0  0
    5.4055   -6.7645    0.0000 C   0  0  0  0  0  0  0  0  0  0  0  0
    4.8563   -8.8135    0.0000 O   0  0  0  0  0  0  0  0  0  0  0  0
    3.5574   -8.0634    0.0000 C   0  0  0  0  0  0  0  0  0  0  0  0
    2.2584   -8.8135    0.0000 C   0  0  0  0  0  0  0  0  0  0  0  0
    0.9592   -8.0634    0.0000 C   0  0  0  0  0  0  0  0  0  0  0  0
    0.9592   -6.5635    0.0000 C   0  0  0  0  0  0  0  0  0  0  0  0
    2.2584   -5.8135    0.0000 C   0  0  0  0  0  0  0  0  0  0  0  0
    3.5574   -6.5635    0.0000 C   0  0  0  0  0  0  0  0  0  0  0  0
   -0.1899   -5.5993    0.0000 C   0  0  0  0  0  0  0  0  0  0  0  0
    0.9592   -4.6351    0.0000 C   0  0  0  0  0  0  0  0  0  0  0  0
    0.6988   -3.1579    0.0000 C   0  0  0  0  0  0  0  0  0  0  0  0
   -0.7106   -2.6449    0.0000 C   0  0  0  0  0  0  0  0  0  0  0  0
   -1.8597   -3.6090    0.0000 C   0  0  0  0  0  0  0  0  0  0  0  0
   -1.5993   -5.0863    0.0000 C   0  0  0  0  0  0  0  0  0  0  0  0
   -1.1539   -6.7484    0.0000 C   0  0  0  0  0  0  0  0  0  0  0  0
   -1.1539   -8.2484    0.0000 C   0  0  0  0  0  0  0  0  0  0  0  0
   -2.4531   -8.9984    0.0000 C   0  0  0  0  0  0  0  0  0  0  0  0
   -3.7521   -8.2484    0.0000 C   0  0  0  0  0  0  0  0  0  0  0  0
   -5.0510   -8.9984    0.0000 O   0  0  0  0  0  0  0  0  0  0  0  0
   -6.3500   -8.2484    0.0000 C   0  0  0  0  0  0  0  0  0  0  0  0
   -5.6002   -6.9493    0.0000 C   0  0  0  0  0  0  0  0  0  0  0  0
   -7.1001   -9.5475    0.0000 C   0  0  0  0  0  0  0  0  0  0  0  0
   -6.3500  -10.8465    0.0000 C   0  0  0  0  0  0  0  0  0  0  0  0
   -7.6490   -7.4984    0.0000 C   0  0  0  0  0  0  0  0  0  0  0  0
   -7.6490   -5.9984    0.0000 O   0  0  0  0  0  0  0  0  0  0  0  0
   -8.9482   -8.2484    0.0000 O   0  0  0  0  0  0  0  0  0  0  0  0
   -3.7521   -6.7484    0.0000 C   0  0  0  0  0  0  0  0  0  0  0  0
   -2.4531   -5.9984    0.0000 C   0  0  0  0  0  0  0  0  0  0  0  0
    7.4545   -7.3136    0.0000 C   0  0  0  0  0  0  0  0  0  0  0  0
    7.4545   -5.8135    0.0000 O   0  0  0  0  0  0  0  0  0  0  0  0
    8.7535   -8.0634    0.0000 O   0  0  0  0  0  0  0  0  0  0  0  0
  1  2  1  0  0  0  0
  2  3  1  0  0  0  0
  3  4  1  0  0  0  0
  3  5  1  0  0  0  0
  3 32  1  0  0  0  0
  5  6  1  0  0  0  0
  7  6  2  0  0  0  0
  6 11  1  0  0  0  0
  8  7  1  0  0  0  0
  9  8  2  0  0  0  0
 10  9  1  0  0  0  0
  9 12  1  0  0  0  0
 11 10  2  0  0  0  0
 13 12  1  0  0  0  0
 12 17  1  0  0  0  0
 12 18  1  0  0  0  0
 14 13  1  0  0  0  0
 15 14  1  0  0  0  0
 16 15  1  0  0  0  0
 17 16  1  0  0  0  0
 19 18  2  0  0  0  0
 18 31  1  0  0  0  0
 20 19  1  0  0  0  0
 21 20  2  0  0  0  0
 21 22  1  0  0  0  0
 30 21  1  0  0  0  0
 22 23  1  0  0  0  0
 23 24  1  0  0  0  0
 23 25  1  0  0  0  0
 23 27  1  0  0  0  0
 25 26  1  0  0  0  0
 27 28  2  0  0  0  0
 27 29  1  0  0  0  0
 31 30  2  0  0  0  0
 32 33  2  0  0  0  0
 32 34  1  0  0  0  0
M  END
> <Inchi_key>
BMOVQUBVGICXQN-UHFFFAOYSA-N

> <Source>
Mulliner

> <ID>
HT0513

> <H_MFHB>
0

> <CAS>
30299-08-2

> <Cholestasis>


> <Name>
clinofibrate

> <Class>
0

$$$$