

  -INDIGO-08031710012D

 44 48  0  0  0  0  0  0  0  0999 V2000
   -2.4684   13.7123    0.0000 N   0  0  0  0  0  0  0  0  0  0  0  0
   -1.7900   12.3743    0.0000 C   0  0  0  0  0  0  0  0  0  0  0  0
   -2.6098   11.1180    0.0000 O   0  0  0  0  0  0  0  0  0  0  0  0
   -0.2922   12.2927    0.0000 C   0  0  0  0  0  0  0  0  0  0  0  0
    0.3858   10.9548    0.0000 C   0  0  0  0  0  0  0  0  0  0  0  0
    1.8836   10.8731    0.0000 N   0  0  0  0  0  0  0  0  0  0  0  0
    2.7030   12.1294    0.0000 C   0  0  0  0  0  0  0  0  0  0  0  0
    2.0250   13.4675    0.0000 C   0  0  0  0  0  0  0  0  0  0  0  0
    0.5272   13.5490    0.0000 C   0  0  0  0  0  0  0  0  0  0  0  0
    2.5616    9.5352    0.0000 C   0  0  0  0  0  0  0  0  0  0  0  0
    4.0429    9.2975    0.0000 O   0  0  0  0  0  0  0  0  0  0  0  0
    4.2743    7.8155    0.0000 C   0  0  0  0  0  0  0  0  0  0  0  0
    5.6094    7.1318    0.0000 C   0  0  0  0  0  0  0  0  0  0  0  0
    6.8691    7.9460    0.0000 O   0  0  0  0  0  0  0  0  0  0  0  0
    8.2042    7.2623    0.0000 P   0  0  0  0  0  0  0  0  0  0  0  0
    7.5206    5.9272    0.0000 O   0  0  0  0  0  0  0  0  0  0  0  0
    8.8881    8.5973    0.0000 O   0  0  0  0  0  0  0  0  0  0  0  0
    9.5393    6.5785    0.0000 O   0  0  0  0  0  0  0  0  0  0  0  0
   10.7990    7.3928    0.0000 P   0  0  0  0  0  0  0  0  0  0  0  0
   11.6132    6.1331    0.0000 O   0  0  0  0  0  0  0  0  0  0  0  0
    9.9847    8.6525    0.0000 O   0  0  0  0  0  0  0  0  0  0  0  0
   12.0587    8.2071    0.0000 O   0  0  0  0  0  0  0  0  0  0  0  0
   13.3938    7.5234    0.0000 C   0  0  0  0  0  0  0  0  0  0  0  0
   14.6535    8.3377    0.0000 C   0  0  0  0  0  0  0  0  0  0  0  0
   16.0529    7.7972    0.0000 O   0  0  0  0  0  0  0  0  0  0  0  0
   16.9991    8.9611    0.0000 C   0  0  0  0  0  0  0  0  0  0  0  0
   16.1848   10.2207    0.0000 C   0  0  0  0  0  0  0  0  0  0  0  0
   16.7254   11.6199    0.0000 O   0  0  0  0  0  0  0  0  0  0  0  0
   14.7352    9.8355    0.0000 C   0  0  0  0  0  0  0  0  0  0  0  0
   13.5715   10.7819    0.0000 O   0  0  0  0  0  0  0  0  0  0  0  0
   18.4969    8.8793    0.0000 N   0  0  0  0  0  0  0  0  0  0  0  0
   19.4434   10.0431    0.0000 C   0  0  0  0  0  0  0  0  0  0  0  0
   20.8425    9.5026    0.0000 N   0  0  0  0  0  0  0  0  0  0  0  0
   20.7612    8.0048    0.0000 C   0  0  0  0  0  0  0  0  0  0  0  0
   21.8195    6.9419    0.0000 C   0  0  0  0  0  0  0  0  0  0  0  0
   23.2691    7.3272    0.0000 N   0  0  0  0  0  0  0  0  0  0  0  0
   21.4281    5.4939    0.0000 N   0  0  0  0  0  0  0  0  0  0  0  0
   19.9785    5.1087    0.0000 C   0  0  0  0  0  0  0  0  0  0  0  0
   18.9198    6.1716    0.0000 N   0  0  0  0  0  0  0  0  0  0  0  0
   19.3112    7.6196    0.0000 C   0  0  0  0  0  0  0  0  0  0  0  0
    2.9364    7.1373    0.0000 C   0  0  0  0  0  0  0  0  0  0  0  0
    2.6987    5.6561    0.0000 O   0  0  0  0  0  0  0  0  0  0  0  0
    1.8781    8.2001    0.0000 C   0  0  0  0  0  0  0  0  0  0  0  0
    0.3961    7.9686    0.0000 O   0  0  0  0  0  0  0  0  0  0  0  0
  1  2  1  0  0  0  0
  2  3  2  0  0  0  0
  2  4  1  0  0  0  0
  5  4  2  0  0  0  0
  4  9  1  0  0  0  0
  6  5  1  0  0  0  0
  7  6  1  0  0  0  0
  6 10  1  0  0  0  0
  8  7  2  0  0  0  0
  9  8  1  0  0  0  0
 11 10  1  0  0  0  0
 10 43  1  0  0  0  0
 12 11  1  0  0  0  0
 12 13  1  0  0  0  0
 41 12  1  0  0  0  0
 13 14  1  0  0  0  0
 14 15  1  0  0  0  0
 15 16  2  0  0  0  0
 15 17  1  0  0  0  0
 15 18  1  0  0  0  0
 18 19  1  0  0  0  0
 19 20  2  0  0  0  0
 19 21  1  0  0  0  0
 19 22  1  0  0  0  0
 22 23  1  0  0  0  0
 23 24  1  0  0  0  0
 25 24  1  0  0  0  0
 24 29  1  0  0  0  0
 26 25  1  0  0  0  0
 27 26  1  0  0  0  0
 26 31  1  0  0  0  0
 27 28  1  0  0  0  0
 29 27  1  0  0  0  0
 29 30  1  0  0  0  0
 32 31  1  0  0  0  0
 31 40  1  0  0  0  0
 33 32  2  0  0  0  0
 34 33  1  0  0  0  0
 35 34  1  0  0  0  0
 34 40  2  0  0  0  0
 35 36  1  0  0  0  0
 37 35  2  0  0  0  0
 38 37  1  0  0  0  0
 39 38  2  0  0  0  0
 40 39  1  0  0  0  0
 41 42  1  0  0  0  0
 43 41  1  0  0  0  0
 43 44  1  0  0  0  0
M  END
> <Inchi_key>
BOPGDPNILDQYTO-UHFFFAOYSA-N

> <Source>
Mulliner

> <ID>
HT1449

> <H_MFHB>
0

> <CAS>


> <Cholestasis>


> <Name>
nadh

> <Class>
0


$$$$