

  -INDIGO-08031710012D

 23 24  0  0  0  0  0  0  0  0999 V2000
    2.5658   -5.1996    0.0000 C   0  0  0  0  0  0  0  0  0  0  0  0
    2.5658   -3.6997    0.0000 C   0  0  0  0  0  0  0  0  0  0  0  0
    3.8647   -2.9496    0.0000 C   0  0  0  0  0  0  0  0  0  0  0  0
    5.1638   -3.6997    0.0000 O   0  0  0  0  0  0  0  0  0  0  0  0
    3.8647   -1.4496    0.0000 C   0  0  0  0  0  0  0  0  0  0  0  0
    5.3646   -1.4496    0.0000 C   0  0  0  0  0  0  0  0  0  0  0  0
    6.4254   -2.5102    0.0000 C   0  0  0  0  0  0  0  0  0  0  0  0
    6.0373   -3.9591    0.0000 C   0  0  0  0  0  0  0  0  0  0  0  0
    7.8744   -2.1220    0.0000 N   0  0  0  0  0  0  0  0  0  0  0  0
    8.2625   -0.6731    0.0000 C   0  0  0  0  0  0  0  0  0  0  0  0
    8.9350   -3.1826    0.0000 C   0  0  0  0  0  0  0  0  0  0  0  0
    3.8647    0.0504    0.0000 C   0  0  0  0  0  0  0  0  0  0  0  0
    2.5658    0.8004    0.0000 C   0  0  0  0  0  0  0  0  0  0  0  0
    2.5658    2.3004    0.0000 C   0  0  0  0  0  0  0  0  0  0  0  0
    3.8647    3.0504    0.0000 C   0  0  0  0  0  0  0  0  0  0  0  0
    5.1638    2.3004    0.0000 C   0  0  0  0  0  0  0  0  0  0  0  0
    5.1638    0.8004    0.0000 C   0  0  0  0  0  0  0  0  0  0  0  0
    2.3647   -1.4496    0.0000 C   0  0  0  0  0  0  0  0  0  0  0  0
    1.6146   -0.1505    0.0000 C   0  0  0  0  0  0  0  0  0  0  0  0
    0.1147   -0.1505    0.0000 C   0  0  0  0  0  0  0  0  0  0  0  0
   -0.6353   -1.4496    0.0000 C   0  0  0  0  0  0  0  0  0  0  0  0
    0.1147   -2.7486    0.0000 C   0  0  0  0  0  0  0  0  0  0  0  0
    1.6146   -2.7486    0.0000 C   0  0  0  0  0  0  0  0  0  0  0  0
  1  2  1  0  0  0  0
  2  3  1  0  0  0  0
  3  4  2  0  0  0  0
  3  5  1  0  0  0  0
  5  6  1  0  0  0  0
  5 12  1  0  0  0  0
  5 18  1  0  0  0  0
  6  7  1  0  0  0  0
  7  8  1  0  0  0  0
  7  9  1  0  0  0  0
  9 10  1  0  0  0  0
  9 11  1  0  0  0  0
 13 12  2  0  0  0  0
 12 17  1  0  0  0  0
 14 13  1  0  0  0  0
 15 14  2  0  0  0  0
 16 15  1  0  0  0  0
 17 16  2  0  0  0  0
 19 18  2  0  0  0  0
 18 23  1  0  0  0  0
 20 19  1  0  0  0  0
 21 20  2  0  0  0  0
 22 21  1  0  0  0  0
 23 22  2  0  0  0  0
M  END
> <Inchi_key>
USSIQXCVUWKGNF-UHFFFAOYSA-N

> <Source>
Mulliner

> <ID>
HT1331

> <H_MFHB>
0

> <CAS>
1095-90-5

> <Cholestasis>


> <Name>
methadone hydrochloride;methadone

> <Class>
0


$$$$