

  -INDIGO-08031710012D

 43 48  0  0  0  0  0  0  0  0999 V2000
   -5.0660    1.3597    0.0000 C   0  0  0  0  0  0  0  0  0  0  0  0
   -6.3642    2.1108    0.0000 C   0  0  0  0  0  0  0  0  0  0  0  0
   -7.6639    1.3619    0.0000 O   0  0  0  0  0  0  0  0  0  0  0  0
   -6.3630    3.6108    0.0000 O   0  0  0  0  0  0  0  0  0  0  0  0
   -5.0632    4.3597    0.0000 C   0  0  0  0  0  0  0  0  0  0  0  0
   -3.7650    3.6086    0.0000 C   0  0  0  0  0  0  0  0  0  0  0  0
   -2.4653    4.3575    0.0000 C   0  0  0  0  0  0  0  0  0  0  0  0
   -1.1668    3.6064    0.0000 C   0  0  0  0  0  0  0  0  0  0  0  0
    0.1330    4.3553    0.0000 C   0  0  0  0  0  0  0  0  0  0  0  0
    0.1342    5.8553    0.0000 C   0  0  0  0  0  0  0  0  0  0  0  0
   -1.1643    6.6064    0.0000 C   0  0  0  0  0  0  0  0  0  0  0  0
   -1.1631    8.1065    0.0000 C   0  0  0  0  0  0  0  0  0  0  0  0
    0.1366    8.8554    0.0000 C   0  0  0  0  0  0  0  0  0  0  0  0
    1.4351    8.1042    0.0000 C   0  0  0  0  0  0  0  0  0  0  0  0
    1.6451    9.5894    0.0000 C   0  0  0  0  0  0  0  0  0  0  0  0
    1.4339    6.6042    0.0000 C   0  0  0  0  0  0  0  0  0  0  0  0
    2.8600    6.1394    0.0000 C   0  0  0  0  0  0  0  0  0  0  0  0
    3.7426    7.3523    0.0000 C   0  0  0  0  0  0  0  0  0  0  0  0
    2.8621    8.5665    0.0000 C   0  0  0  0  0  0  0  0  0  0  0  0
    3.3269    9.9925    0.0000 O   0  0  0  0  0  0  0  0  0  0  0  0
    2.3241   11.1082    0.0000 C   0  0  0  0  0  0  0  0  0  0  0  0
    0.8565   10.7975    0.0000 O   0  0  0  0  0  0  0  0  0  0  0  0
    2.7889   12.5344    0.0000 C   0  0  0  0  0  0  0  0  0  0  0  0
    5.2428    7.3509    0.0000 N   0  0  0  0  0  0  0  0  0  0  0  0
    5.9917    6.0512    0.0000 C   0  0  0  0  0  0  0  0  0  0  0  0
    7.4916    6.0499    0.0000 C   0  0  0  0  0  0  0  0  0  0  0  0
    8.2427    7.3484    0.0000 N   0  0  0  0  0  0  0  0  0  0  0  0
    9.5412    6.5972    0.0000 C   0  0  0  0  0  0  0  0  0  0  0  0
    9.5424    8.0973    0.0000 C   0  0  0  0  0  0  0  0  0  0  0  0
    7.4938    8.6480    0.0000 C   0  0  0  0  0  0  0  0  0  0  0  0
    5.9938    8.6492    0.0000 C   0  0  0  0  0  0  0  0  0  0  0  0
   -2.4638    5.8575    0.0000 C   0  0  0  0  0  0  0  0  0  0  0  0
   -3.7367    5.0636    0.0000 C   0  0  0  0  0  0  0  0  0  0  0  0
   -3.7623    6.6087    0.0000 C   0  0  0  0  0  0  0  0  0  0  0  0
   -5.0620    5.8598    0.0000 C   0  0  0  0  0  0  0  0  0  0  0  0
   -6.3605    6.6109    0.0000 N   0  0  0  0  0  0  0  0  0  0  0  0
   -7.6600    5.8620    0.0000 C   0  0  0  0  0  0  0  0  0  0  0  0
   -8.9585    6.6131    0.0000 C   0  0  0  0  0  0  0  0  0  0  0  0
   -8.9573    8.1131    0.0000 N   0  0  0  0  0  0  0  0  0  0  0  0
   -9.7062    9.4128    0.0000 C   0  0  0  0  0  0  0  0  0  0  0  0
  -10.4572    8.1143    0.0000 C   0  0  0  0  0  0  0  0  0  0  0  0
   -7.6575    8.8618    0.0000 C   0  0  0  0  0  0  0  0  0  0  0  0
   -6.3590    8.1107    0.0000 C   0  0  0  0  0  0  0  0  0  0  0  0
  1  2  1  0  0  0  0
  2  3  2  0  0  0  0
  2  4  1  0  0  0  0
  4  5  1  0  0  0  0
  6  5  1  0  0  0  0
  5 35  1  0  0  0  0
  7  6  1  0  0  0  0
  8  7  1  0  0  0  0
  7 32  1  0  0  0  0
  9  8  1  0  0  0  0
 10  9  1  0  0  0  0
 10 11  1  0  0  0  0
 16 10  1  0  0  0  0
 11 12  1  0  0  0  0
 32 11  1  0  0  0  0
 12 13  1  0  0  0  0
 13 14  1  0  0  0  0
 14 15  1  0  0  0  0
 16 14  1  0  0  0  0
 14 19  1  0  0  0  0
 17 16  1  0  0  0  0
 18 17  1  0  0  0  0
 19 18  1  0  0  0  0
 18 24  1  0  0  0  0
 19 20  1  0  0  0  0
 20 21  1  0  0  0  0
 21 22  2  0  0  0  0
 21 23  1  0  0  0  0
 25 24  1  0  0  0  0
 24 31  1  0  0  0  0
 26 25  1  0  0  0  0
 27 26  1  0  0  0  0
 27 28  1  0  0  0  0
 27 29  1  0  0  0  0
 30 27  1  0  0  0  0
 31 30  1  0  0  0  0
 32 33  1  0  0  0  0
 34 32  1  0  0  0  0
 35 34  1  0  0  0  0
 35 36  1  0  0  0  0
 37 36  1  0  0  0  0
 36 43  1  0  0  0  0
 38 37  1  0  0  0  0
 39 38  1  0  0  0  0
 39 40  1  0  0  0  0
 39 41  1  0  0  0  0
 42 39  1  0  0  0  0
 43 42  1  0  0  0  0
M  CHG  2  27   1  39   1
M  END
> <Inchi_key>
OWWLUIWOFHMHOQ-UHFFFAOYSA-N

> <Source>
Mulliner

> <ID>
HT1681

> <H_MFHB>
0

> <CAS>


> <Cholestasis>


> <Name>
pipecuronium

> <Class>
0


$$$$