
  -INDIGO-08031710012D

 27 30  0  0  0  0  0  0  0  0999 V2000
    4.7501   -2.1651    0.0000 O   0  0  0  0  0  0  0  0  0  0  0  0
    4.0001   -0.8659    0.0000 C   0  0  0  0  0  0  0  0  0  0  0  0
    4.7501    0.4330    0.0000 N   0  0  0  0  0  0  0  0  0  0  0  0
    4.0001    1.7320    0.0000 C   0  0  0  0  0  0  0  0  0  0  0  0
    2.4999    1.7320    0.0000 C   0  0  0  0  0  0  0  0  0  0  0  0
    1.7500    0.4330    0.0000 C   0  0  0  0  0  0  0  0  0  0  0  0
    2.4999   -0.8659    0.0000 C   0  0  0  0  0  0  0  0  0  0  0  0
    1.7500   -2.1651    0.0000 C   0  0  0  0  0  0  0  0  0  0  0  0
    2.4999   -3.4640    0.0000 C   0  0  0  0  0  0  0  0  0  0  0  0
    1.7500   -4.7631    0.0000 C   0  0  0  0  0  0  0  0  0  0  0  0
    0.2500   -4.7631    0.0000 C   0  0  0  0  0  0  0  0  0  0  0  0
   -0.5000   -3.4640    0.0000 C   0  0  0  0  0  0  0  0  0  0  0  0
    0.2500   -2.1651    0.0000 C   0  0  0  0  0  0  0  0  0  0  0  0
   -0.5000   -0.8659    0.0000 C   0  0  0  0  0  0  0  0  0  0  0  0
   -1.2500    0.4330    0.0000 N   0  0  0  0  0  0  0  0  0  0  0  0
    1.7500    3.0311    0.0000 C   0  0  0  0  0  0  0  0  0  0  0  0
    2.4999    4.3301    0.0000 C   0  0  0  0  0  0  0  0  0  0  0  0
    1.7500    5.6292    0.0000 C   0  0  0  0  0  0  0  0  0  0  0  0
    0.2500    5.6292    0.0000 C   0  0  0  0  0  0  0  0  0  0  0  0
   -0.5000    4.3301    0.0000 C   0  0  0  0  0  0  0  0  0  0  0  0
    0.2500    3.0311    0.0000 N   0  0  0  0  0  0  0  0  0  0  0  0
    6.2500    0.4330    0.0000 C   0  0  0  0  0  0  0  0  0  0  0  0
    7.0000    1.7320    0.0000 C   0  0  0  0  0  0  0  0  0  0  0  0
    8.5000    1.7320    0.0000 C   0  0  0  0  0  0  0  0  0  0  0  0
    9.2500    0.4330    0.0000 C   0  0  0  0  0  0  0  0  0  0  0  0
    8.5000   -0.8659    0.0000 C   0  0  0  0  0  0  0  0  0  0  0  0
    7.0000   -0.8659    0.0000 C   0  0  0  0  0  0  0  0  0  0  0  0
  1  2  2  0  0  0  0
  3  2  1  0  0  0  0
  2  7  1  0  0  0  0
  4  3  1  0  0  0  0
  3 22  1  0  0  0  0
  5  4  2  0  0  0  0
  6  5  1  0  0  0  0
  5 16  1  0  0  0  0
  7  6  2  0  0  0  0
  7  8  1  0  0  0  0
  9  8  2  0  0  0  0
  8 13  1  0  0  0  0
 10  9  1  0  0  0  0
 11 10  2  0  0  0  0
 12 11  1  0  0  0  0
 13 12  2  0  0  0  0
 13 14  1  0  0  0  0
 14 15  3  0  0  0  0
 17 16  2  0  0  0  0
 16 21  1  0  0  0  0
 18 17  1  0  0  0  0
 19 18  2  0  0  0  0
 20 19  1  0  0  0  0
 21 20  2  0  0  0  0
 23 22  2  0  0  0  0
 22 27  1  0  0  0  0
 24 23  1  0  0  0  0
 25 24  2  0  0  0  0
 26 25  1  0  0  0  0
 27 26  2  0  0  0  0
M  END
> <Inchi_key>
PRMWGUBFXWROHD-UHFFFAOYSA-N

> <Source>
Mulliner

> <ID>
HT1629

> <H_MFHB>
0

> <CAS>
380917-97-5

> <Cholestasis>


> <Name>
perampanel

> <Class>
0

$$$$