

  -INDIGO-08031710012D

 23 24  0  0  0  0  0  0  0  0999 V2000
   -1.9994   -1.4619    0.0000 N   0  0  0  0  0  0  0  0  0  0  0  0
   -0.7005   -0.7118    0.0000 C   0  0  0  0  0  0  0  0  0  0  0  0
   -0.7005    0.7881    0.0000 O   0  0  0  0  0  0  0  0  0  0  0  0
    0.5986   -1.4619    0.0000 N   0  0  0  0  0  0  0  0  0  0  0  0
    0.5986   -2.9619    0.0000 C   0  0  0  0  0  0  0  0  0  0  0  0
   -0.7005   -3.7118    0.0000 O   0  0  0  0  0  0  0  0  0  0  0  0
    1.8977   -3.7118    0.0000 C   0  0  0  0  0  0  0  0  0  0  0  0
    3.1967   -2.9619    0.0000 O   0  0  0  0  0  0  0  0  0  0  0  0
    4.4958   -3.7118    0.0000 C   0  0  0  0  0  0  0  0  0  0  0  0
    4.4958   -5.2119    0.0000 C   0  0  0  0  0  0  0  0  0  0  0  0
    5.7949   -5.9619    0.0000 C   0  0  0  0  0  0  0  0  0  0  0  0
    7.0940   -5.2119    0.0000 C   0  0  0  0  0  0  0  0  0  0  0  0
    8.3929   -5.9619    0.0000 Cl  0  0  0  0  0  0  0  0  0  0  0  0
    7.0940   -3.7118    0.0000 C   0  0  0  0  0  0  0  0  0  0  0  0
    5.7949   -2.9619    0.0000 C   0  0  0  0  0  0  0  0  0  0  0  0
    1.8977   -5.2119    0.0000 O   0  0  0  0  0  0  0  0  0  0  0  0
    0.5986   -5.9619    0.0000 C   0  0  0  0  0  0  0  0  0  0  0  0
   -0.7005   -5.2119    0.0000 C   0  0  0  0  0  0  0  0  0  0  0  0
   -1.9994   -5.9619    0.0000 C   0  0  0  0  0  0  0  0  0  0  0  0
   -1.9994   -7.4619    0.0000 C   0  0  0  0  0  0  0  0  0  0  0  0
   -3.2985   -8.2119    0.0000 Cl  0  0  0  0  0  0  0  0  0  0  0  0
   -0.7005   -8.2119    0.0000 C   0  0  0  0  0  0  0  0  0  0  0  0
    0.5986   -7.4619    0.0000 C   0  0  0  0  0  0  0  0  0  0  0  0
  1  2  1  0  0  0  0
  2  3  2  0  0  0  0
  2  4  1  0  0  0  0
  4  5  1  0  0  0  0
  5  6  2  0  0  0  0
  5  7  1  0  0  0  0
  7  8  1  0  0  0  0
  7 16  1  0  0  0  0
  8  9  1  0  0  0  0
 10  9  2  0  0  0  0
  9 15  1  0  0  0  0
 11 10  1  0  0  0  0
 12 11  2  0  0  0  0
 12 13  1  0  0  0  0
 14 12  1  0  0  0  0
 15 14  2  0  0  0  0
 16 17  1  0  0  0  0
 18 17  2  0  0  0  0
 17 23  1  0  0  0  0
 19 18  1  0  0  0  0
 20 19  2  0  0  0  0
 20 21  1  0  0  0  0
 22 20  1  0  0  0  0
 23 22  2  0  0  0  0
M  END
> <Inchi_key>
SARMXBVJUDMWKA-UHFFFAOYSA-N

> <Source>
Mulliner

> <ID>
HT2155

> <H_MFHB>
0

> <CAS>
38647-79-9

> <Cholestasis>


> <Name>
urefibrate

> <Class>
0


$$$$