
  -INDIGO-08031710012D

 36 39  0  0  0  0  0  0  0  0999 V2000
   -0.3349   -1.3036    0.0000 C   0  0  0  0  0  0  0  0  0  0  0  0
    0.9792   -2.0268    0.0000 O   0  0  0  0  0  0  0  0  0  0  0  0
    1.0102   -3.5264    0.0000 C   0  0  0  0  0  0  0  0  0  0  0  0
    2.3245   -4.2495    0.0000 C   0  0  0  0  0  0  0  0  0  0  0  0
    3.6077   -3.4727    0.0000 C   0  0  0  0  0  0  0  0  0  0  0  0
    4.9221   -4.1958    0.0000 C   0  0  0  0  0  0  0  0  0  0  0  0
    4.9531   -5.6955    0.0000 C   0  0  0  0  0  0  0  0  0  0  0  0
    6.2672   -6.4186    0.0000 C   0  0  0  0  0  0  0  0  0  0  0  0
    3.6696   -6.4723    0.0000 N   0  0  0  0  0  0  0  0  0  0  0  0
    2.3555   -5.7491    0.0000 C   0  0  0  0  0  0  0  0  0  0  0  0
    1.0721   -6.5258    0.0000 C   0  0  0  0  0  0  0  0  0  0  0  0
    6.2053   -3.4192    0.0000 C   0  0  0  0  0  0  0  0  0  0  0  0
    6.1743   -1.9194    0.0000 O   0  0  0  0  0  0  0  0  0  0  0  0
    7.5194   -4.1422    0.0000 O   0  0  0  0  0  0  0  0  0  0  0  0
    8.8028   -3.3657    0.0000 C   0  0  0  0  0  0  0  0  0  0  0  0
    8.9289   -1.8708    0.0000 C   0  0  0  0  0  0  0  0  0  0  0  0
   10.3892   -1.5288    0.0000 C   0  0  0  0  0  0  0  0  0  0  0  0
   11.1658   -2.8121    0.0000 N   0  0  0  0  0  0  0  0  0  0  0  0
   12.6605   -2.9381    0.0000 C   0  0  0  0  0  0  0  0  0  0  0  0
   13.5171   -1.7066    0.0000 C   0  0  0  0  0  0  0  0  0  0  0  0
   12.8788   -0.3493    0.0000 C   0  0  0  0  0  0  0  0  0  0  0  0
   13.7351    0.8823    0.0000 C   0  0  0  0  0  0  0  0  0  0  0  0
   15.2298    0.7563    0.0000 C   0  0  0  0  0  0  0  0  0  0  0  0
   15.8682   -0.6011    0.0000 C   0  0  0  0  0  0  0  0  0  0  0  0
   15.0118   -1.8325    0.0000 C   0  0  0  0  0  0  0  0  0  0  0  0
   10.1853   -3.9473    0.0000 C   0  0  0  0  0  0  0  0  0  0  0  0
    3.5768   -1.9731    0.0000 C   0  0  0  0  0  0  0  0  0  0  0  0
    4.8602   -1.1966    0.0000 C   0  0  0  0  0  0  0  0  0  0  0  0
    4.8292    0.3032    0.0000 C   0  0  0  0  0  0  0  0  0  0  0  0
    3.5148    1.0262    0.0000 C   0  0  0  0  0  0  0  0  0  0  0  0
    2.2317    0.2497    0.0000 C   0  0  0  0  0  0  0  0  0  0  0  0
    2.2626   -1.2501    0.0000 C   0  0  0  0  0  0  0  0  0  0  0  0
    0.9175    0.9725    0.0000 N   0  0  0  0  0  0  0  0  0  0  0  0
    0.8863    2.4723    0.0000 O   0  0  0  0  0  0  0  0  0  0  0  0
   -0.3659    0.1960    0.0000 O   0  0  0  0  0  0  0  0  0  0  0  0
   -0.2730   -4.3032    0.0000 O   0  0  0  0  0  0  0  0  0  0  0  0
  1  2  1  0  0  0  0
  2  3  1  0  0  0  0
  3  4  2  0  0  0  0
  3 36  1  0  0  0  0
  5  4  1  0  0  0  0
  4 10  1  0  0  0  0
  6  5  1  0  0  0  0
  5 27  1  0  0  0  0
  7  6  2  0  0  0  0
  6 12  1  0  0  0  0
  7  8  1  0  0  0  0
  9  7  1  0  0  0  0
 10  9  2  0  0  0  0
 10 11  1  0  0  0  0
 12 13  2  0  0  0  0
 12 14  1  0  0  0  0
 14 15  1  0  0  0  0
 16 15  1  0  0  0  0
 15 26  1  0  0  0  0
 17 16  1  0  0  0  0
 18 17  1  0  0  0  0
 18 19  1  0  0  0  0
 26 18  1  0  0  0  0
 19 20  1  0  0  0  0
 21 20  2  0  0  0  0
 20 25  1  0  0  0  0
 22 21  1  0  0  0  0
 23 22  2  0  0  0  0
 24 23  1  0  0  0  0
 25 24  2  0  0  0  0
 28 27  2  0  0  0  0
 27 32  1  0  0  0  0
 29 28  1  0  0  0  0
 30 29  2  0  0  0  0
 31 30  1  0  0  0  0
 32 31  2  0  0  0  0
 31 33  1  0  0  0  0
 33 34  2  0  0  0  0
 33 35  1  0  0  0  0
M  CHG  2  33   1  35  -1
M  END
> <Inchi_key>
XEMMMYRHLQVPBM-RWEWTDSWSA-N

> <Source>
Mulliner

> <ID>
HT0228

> <H_MFHB>
0

> <CAS>


> <Cholestasis>


> <Name>
barnidipine

> <Class>
0

$$$$