

  -INDIGO-08031710012D

 22 24  0  0  0  0  0  0  0  0999 V2000
    0.3800   -3.8324    0.0000 C   0  0  0  0  0  0  0  0  0  0  0  0
    1.8508   -3.5378    0.0000 C   0  0  0  0  0  0  0  0  0  0  0  0
    1.4455   -4.9820    0.0000 C   0  0  0  0  0  0  0  0  0  0  0  0
    3.3224   -3.8285    0.0000 S   0  0  0  0  0  0  0  0  0  0  0  0
    4.0536   -2.5188    0.0000 C   0  0  0  0  0  0  0  0  0  0  0  0
    5.1537   -1.4992    0.0000 C   0  0  0  0  0  0  0  0  0  0  0  0
    6.6526   -1.5561    0.0000 N   0  0  0  0  0  0  0  0  0  0  0  0
    7.4513   -0.2864    0.0000 C   0  0  0  0  0  0  0  0  0  0  0  0
    8.9502   -0.3434    0.0000 N   0  0  0  0  0  0  0  0  0  0  0  0
    9.5491   -1.7187    0.0000 C   0  0  0  0  0  0  0  0  0  0  0  0
   10.9981   -2.1063    0.0000 C   0  0  0  0  0  0  0  0  0  0  0  0
   12.2051   -1.2156    0.0000 C   0  0  0  0  0  0  0  0  0  0  0  0
   12.2620    0.2833    0.0000 C   0  0  0  0  0  0  0  0  0  0  0  0
   11.1255    1.2618    0.0000 C   0  0  0  0  0  0  0  0  0  0  0  0
    9.6515    0.9826    0.0000 C   0  0  0  0  0  0  0  0  0  0  0  0
    4.1341   -0.3990    0.0000 C   0  0  0  0  0  0  0  0  0  0  0  0
    4.1911    1.0999    0.0000 O   0  0  0  0  0  0  0  0  0  0  0  0
    3.0338   -1.4187    0.0000 N   0  0  0  0  0  0  0  0  0  0  0  0
    1.6725   -2.0484    0.0000 C   0  0  0  0  0  0  0  0  0  0  0  0
    0.3627   -1.3172    0.0000 C   0  0  0  0  0  0  0  0  0  0  0  0
   -0.9253   -2.0858    0.0000 O   0  0  0  0  0  0  0  0  0  0  0  0
    0.3412    0.1826    0.0000 O   0  0  0  0  0  0  0  0  0  0  0  0
  1  2  1  0  0  0  0
  2  3  1  0  0  0  0
  4  2  1  0  0  0  0
  2 19  1  0  0  0  0
  5  4  1  0  0  0  0
  6  5  1  0  0  0  0
  5 18  1  0  0  0  0
  6  7  1  0  0  0  0
 16  6  1  0  0  0  0
  7  8  2  0  0  0  0
  8  9  1  0  0  0  0
 10  9  1  0  0  0  0
  9 15  1  0  0  0  0
 11 10  1  0  0  0  0
 12 11  1  0  0  0  0
 13 12  1  0  0  0  0
 14 13  1  0  0  0  0
 15 14  1  0  0  0  0
 16 17  2  0  0  0  0
 18 16  1  0  0  0  0
 19 18  1  0  0  0  0
 19 20  1  0  0  0  0
 20 21  2  0  0  0  0
 20 22  1  0  0  0  0
M  END
> <Inchi_key>
BWWVAEOLVKTZFQ-CXUHLZMHSA-N

> <Source>
Mulliner

> <ID>
HT0127

> <H_MFHB>
0

> <CAS>


> <Cholestasis>


> <Name>
amdinocillin

> <Class>
0


$$$$