

  -INDIGO-08031710012D

 26 28  0  0  0  0  0  0  0  0999 V2000
    0.1336    4.9208    0.0000 O   0  0  0  0  0  0  0  0  0  0  0  0
    0.8836    3.6218    0.0000 C   0  0  0  0  0  0  0  0  0  0  0  0
    2.1826    4.3718    0.0000 C   0  0  0  0  0  0  0  0  0  0  0  0
    3.4814    3.6218    0.0000 C   0  0  0  0  0  0  0  0  0  0  0  0
    3.4814    2.1218    0.0000 N   0  0  0  0  0  0  0  0  0  0  0  0
    4.7805    1.3718    0.0000 C   0  0  0  0  0  0  0  0  0  0  0  0
    6.0795    2.1218    0.0000 C   0  0  0  0  0  0  0  0  0  0  0  0
    7.3786    1.3718    0.0000 C   0  0  0  0  0  0  0  0  0  0  0  0
    8.6777    2.1218    0.0000 C   0  0  0  0  0  0  0  0  0  0  0  0
    8.6777    3.6218    0.0000 O   0  0  0  0  0  0  0  0  0  0  0  0
    9.9767    1.3718    0.0000 C   0  0  0  0  0  0  0  0  0  0  0  0
    9.9767   -0.1282    0.0000 C   0  0  0  0  0  0  0  0  0  0  0  0
   11.2758   -0.8782    0.0000 C   0  0  0  0  0  0  0  0  0  0  0  0
   12.5748   -0.1282    0.0000 C   0  0  0  0  0  0  0  0  0  0  0  0
   13.8739   -0.8782    0.0000 F   0  0  0  0  0  0  0  0  0  0  0  0
   12.5748    1.3718    0.0000 C   0  0  0  0  0  0  0  0  0  0  0  0
   11.2758    2.1218    0.0000 C   0  0  0  0  0  0  0  0  0  0  0  0
    2.1826    1.3718    0.0000 C   0  0  0  0  0  0  0  0  0  0  0  0
    0.8836    2.1218    0.0000 C   0  0  0  0  0  0  0  0  0  0  0  0
   -0.6166    3.6218    0.0000 C   0  0  0  0  0  0  0  0  0  0  0  0
   -1.3665    4.9208    0.0000 C   0  0  0  0  0  0  0  0  0  0  0  0
   -2.8664    4.9208    0.0000 C   0  0  0  0  0  0  0  0  0  0  0  0
   -3.6166    3.6218    0.0000 C   0  0  0  0  0  0  0  0  0  0  0  0
   -5.1165    3.6218    0.0000 Br  0  0  0  0  0  0  0  0  0  0  0  0
   -2.8664    2.3227    0.0000 C   0  0  0  0  0  0  0  0  0  0  0  0
   -1.3665    2.3227    0.0000 C   0  0  0  0  0  0  0  0  0  0  0  0
  1  2  1  0  0  0  0
  3  2  1  0  0  0  0
  2 19  1  0  0  0  0
  2 20  1  0  0  0  0
  4  3  1  0  0  0  0
  5  4  1  0  0  0  0
  5  6  1  0  0  0  0
 18  5  1  0  0  0  0
  6  7  1  0  0  0  0
  7  8  1  0  0  0  0
  8  9  1  0  0  0  0
  9 10  2  0  0  0  0
  9 11  1  0  0  0  0
 12 11  2  0  0  0  0
 11 17  1  0  0  0  0
 13 12  1  0  0  0  0
 14 13  2  0  0  0  0
 14 15  1  0  0  0  0
 16 14  1  0  0  0  0
 17 16  2  0  0  0  0
 19 18  1  0  0  0  0
 21 20  2  0  0  0  0
 20 26  1  0  0  0  0
 22 21  1  0  0  0  0
 23 22  2  0  0  0  0
 23 24  1  0  0  0  0
 25 23  1  0  0  0  0
 26 25  2  0  0  0  0
M  END
> <Inchi_key>
RKLNONIVDFXQRX-UHFFFAOYSA-N

> <Source>
Mulliner

> <ID>
HT3799

> <H_MFHB>
0

> <CAS>


> <Cholestasis>


> <Name>


> <Class>
0


$$$$