
  -INDIGO-08031710012D

  8  8  0  0  0  0  0  0  0  0999 V2000
    4.5712   -2.6392    0.0000 O   0  0  0  0  0  0  0  0  0  0  0  0
    3.8212   -1.3402    0.0000 C   0  0  0  0  0  0  0  0  0  0  0  0
    4.5712   -0.0411    0.0000 O   0  0  0  0  0  0  0  0  0  0  0  0
    2.3212   -1.3402    0.0000 C   0  0  0  0  0  0  0  0  0  0  0  0
    1.4395   -0.1266    0.0000 C   0  0  0  0  0  0  0  0  0  0  0  0
    0.0130   -0.5902    0.0000 C   0  0  0  0  0  0  0  0  0  0  0  0
    0.0130   -2.0902    0.0000 C   0  0  0  0  0  0  0  0  0  0  0  0
    1.4395   -2.5537    0.0000 N   0  0  0  0  0  0  0  0  0  0  0  0
  1  2  1  0  0  0  0
  2  3  2  0  0  0  0
  2  4  1  0  0  0  0
  5  4  1  0  0  0  0
  4  8  1  0  0  0  0
  6  5  1  0  0  0  0
  7  6  1  0  0  0  0
  8  7  1  0  0  0  0
M  END
> <Inchi_key>
ONIBWKKTOPOVIA-UHFFFAOYSA-N

> <Source>
Mulliner

> <ID>
HT1249

> <H_MFHB>
0

> <CAS>


> <Cholestasis>


> <Name>
l-proline

> <Class>
0

$$$$