
  -INDIGO-08031709442D

 20 21  0  0  0  0  0  0  0  0999 V2000
    1.1176    1.5074    0.0000 O   0  0  0  0  0  0  0  0  0  0  0  0
    1.1176    0.0074    0.0000 C   0  0  0  0  0  0  0  0  0  0  0  0
    2.4167   -0.7426    0.0000 N   0  0  0  0  0  0  0  0  0  0  0  0
    3.7158    0.0074    0.0000 C   0  0  0  0  0  0  0  0  0  0  0  0
    5.0148   -0.7426    0.0000 C   0  0  0  0  0  0  0  0  0  0  0  0
    6.3138    0.0074    0.0000 C   0  0  0  0  0  0  0  0  0  0  0  0
    6.3138    1.5074    0.0000 C   0  0  0  0  0  0  0  0  0  0  0  0
    5.0148    2.2574    0.0000 C   0  0  0  0  0  0  0  0  0  0  0  0
    3.7158    1.5074    0.0000 C   0  0  0  0  0  0  0  0  0  0  0  0
    2.4167    2.2574    0.0000 C   0  0  0  0  0  0  0  0  0  0  0  0
    5.0148   -2.2426    0.0000 C   0  0  0  0  0  0  0  0  0  0  0  0
   -0.1815   -0.7426    0.0000 C   0  0  0  0  0  0  0  0  0  0  0  0
   -1.4803    0.0074    0.0000 N   0  0  0  0  0  0  0  0  0  0  0  0
   -2.7795   -0.7426    0.0000 C   0  0  0  0  0  0  0  0  0  0  0  0
   -2.7795   -2.2426    0.0000 C   0  0  0  0  0  0  0  0  0  0  0  0
   -1.4803   -2.9926    0.0000 C   0  0  0  0  0  0  0  0  0  0  0  0
   -0.1815   -2.2426    0.0000 C   0  0  0  0  0  0  0  0  0  0  0  0
   -1.4803    1.5074    0.0000 C   0  0  0  0  0  0  0  0  0  0  0  0
   -2.7795    2.2574    0.0000 C   0  0  0  0  0  0  0  0  0  0  0  0
   -2.7795    3.7574    0.0000 C   0  0  0  0  0  0  0  0  0  0  0  0
  1  2  2  0  0  0  0
  2  3  1  0  0  0  0
  2 12  1  0  0  0  0
  3  4  1  0  0  0  0
  5  4  2  0  0  0  0
  4  9  1  0  0  0  0
  6  5  1  0  0  0  0
  5 11  1  0  0  0  0
  7  6  2  0  0  0  0
  8  7  1  0  0  0  0
  9  8  2  0  0  0  0
  9 10  1  0  0  0  0
 13 12  1  0  0  0  0
 12 17  1  0  0  0  0
 14 13  1  0  0  0  0
 13 18  1  0  0  0  0
 15 14  1  0  0  0  0
 16 15  1  0  0  0  0
 17 16  1  0  0  0  0
 18 19  1  0  0  0  0
 19 20  1  0  0  0  0
M  END
> <Inchi_key>
ZKMNUMMKYBVTFN-UHFFFAOYSA-N

> <Source>
Kotsampasakou

> <ID>
EK0476

> <H_MFHB>


> <CAS>


> <Cholestasis>
0

> <Name>
ropivacaine

> <Class>
0

$$$$