
  -INDIGO-08031710012D

 28 31  0  0  0  0  0  0  0  0999 V2000
   -2.6249   -5.0862    0.0000 O   0  0  0  0  0  0  0  0  0  0  0  0
   -1.7560   -6.3088    0.0000 C   0  0  0  0  0  0  0  0  0  0  0  0
   -2.3802   -7.6727    0.0000 O   0  0  0  0  0  0  0  0  0  0  0  0
   -0.2625   -6.1676    0.0000 C   0  0  0  0  0  0  0  0  0  0  0  0
    0.6064   -7.3902    0.0000 C   0  0  0  0  0  0  0  0  0  0  0  0
    2.0998   -7.2489    0.0000 C   0  0  0  0  0  0  0  0  0  0  0  0
    2.7241   -5.8850    0.0000 C   0  0  0  0  0  0  0  0  0  0  0  0
    1.8551   -4.6623    0.0000 C   0  0  0  0  0  0  0  0  0  0  0  0
    0.3617   -4.8037    0.0000 C   0  0  0  0  0  0  0  0  0  0  0  0
    4.2175   -5.7437    0.0000 N   0  0  0  0  0  0  0  0  0  0  0  0
    5.2096   -6.8688    0.0000 N   0  0  0  0  0  0  0  0  0  0  0  0
    6.5860   -6.2729    0.0000 C   0  0  0  0  0  0  0  0  0  0  0  0
    6.4447   -4.7796    0.0000 N   0  0  0  0  0  0  0  0  0  0  0  0
    4.9809   -4.4525    0.0000 C   0  0  0  0  0  0  0  0  0  0  0  0
    4.3850   -3.0760    0.0000 C   0  0  0  0  0  0  0  0  0  0  0  0
    2.8950   -2.9036    0.0000 C   0  0  0  0  0  0  0  0  0  0  0  0
    2.2991   -1.5271    0.0000 C   0  0  0  0  0  0  0  0  0  0  0  0
    3.1934   -0.3228    0.0000 C   0  0  0  0  0  0  0  0  0  0  0  0
    4.6835   -0.4951    0.0000 C   0  0  0  0  0  0  0  0  0  0  0  0
    5.2793   -1.8716    0.0000 C   0  0  0  0  0  0  0  0  0  0  0  0
    6.7694   -2.0440    0.0000 O   0  0  0  0  0  0  0  0  0  0  0  0
    7.8772   -7.0363    0.0000 C   0  0  0  0  0  0  0  0  0  0  0  0
    9.1841   -6.2999    0.0000 C   0  0  0  0  0  0  0  0  0  0  0  0
   10.4752   -7.0635    0.0000 C   0  0  0  0  0  0  0  0  0  0  0  0
   10.4596   -8.5633    0.0000 C   0  0  0  0  0  0  0  0  0  0  0  0
    9.1529   -9.2998    0.0000 C   0  0  0  0  0  0  0  0  0  0  0  0
    7.8618   -8.5363    0.0000 C   0  0  0  0  0  0  0  0  0  0  0  0
    6.5549   -9.2728    0.0000 O   0  0  0  0  0  0  0  0  0  0  0  0
  1  2  1  0  0  0  0
  2  3  2  0  0  0  0
  2  4  1  0  0  0  0
  5  4  2  0  0  0  0
  4  9  1  0  0  0  0
  6  5  1  0  0  0  0
  7  6  2  0  0  0  0
  8  7  1  0  0  0  0
  7 10  1  0  0  0  0
  9  8  2  0  0  0  0
 11 10  1  0  0  0  0
 10 14  1  0  0  0  0
 12 11  2  0  0  0  0
 13 12  1  0  0  0  0
 12 22  1  0  0  0  0
 14 13  2  0  0  0  0
 14 15  1  0  0  0  0
 16 15  2  0  0  0  0
 15 20  1  0  0  0  0
 17 16  1  0  0  0  0
 18 17  2  0  0  0  0
 19 18  1  0  0  0  0
 20 19  2  0  0  0  0
 20 21  1  0  0  0  0
 23 22  2  0  0  0  0
 22 27  1  0  0  0  0
 24 23  1  0  0  0  0
 25 24  2  0  0  0  0
 26 25  1  0  0  0  0
 27 26  2  0  0  0  0
 27 28  1  0  0  0  0
M  END
> <Inchi_key>
BOFQWVMAQOTZIW-UHFFFAOYSA-N

> <Source>
Mulliner

> <ID>
HT0599

> <H_MFHB>
0

> <CAS>


> <Cholestasis>


> <Name>
deferasirox

> <Class>
0

$$$$