

  -INDIGO-08031710012D

 12 12  0  0  0  0  0  0  0  0999 V2000
    2.9363    2.9363    0.0000 N   0  0  0  0  0  0  0  0  0  0  0  0
    2.9363    1.4363    0.0000 C   0  0  0  0  0  0  0  0  0  0  0  0
    1.6373    0.6863    0.0000 C   0  0  0  0  0  0  0  0  0  0  0  0
    0.3382    1.4363    0.0000 C   0  0  0  0  0  0  0  0  0  0  0  0
    0.3382    2.9363    0.0000 C   0  0  0  0  0  0  0  0  0  0  0  0
   -0.9608    3.6863    0.0000 C   0  0  0  0  0  0  0  0  0  0  0  0
   -2.2599    2.9363    0.0000 C   0  0  0  0  0  0  0  0  0  0  0  0
   -2.2599    1.4363    0.0000 C   0  0  0  0  0  0  0  0  0  0  0  0
   -0.9608    0.6863    0.0000 C   0  0  0  0  0  0  0  0  0  0  0  0
    4.2353    0.6863    0.0000 C   0  0  0  0  0  0  0  0  0  0  0  0
    4.2353   -0.8137    0.0000 O   0  0  0  0  0  0  0  0  0  0  0  0
    5.5344    1.4363    0.0000 O   0  0  0  0  0  0  0  0  0  0  0  0
  1  2  1  0  0  0  0
  2  3  1  0  0  0  0
  2 10  1  0  0  0  0
  3  4  1  0  0  0  0
  5  4  2  0  0  0  0
  4  9  1  0  0  0  0
  6  5  1  0  0  0  0
  7  6  2  0  0  0  0
  8  7  1  0  0  0  0
  9  8  2  0  0  0  0
 10 11  2  0  0  0  0
 10 12  1  0  0  0  0
M  END
> <Inchi_key>
COLNVLDHVKWLRT-UHFFFAOYSA-N

> <Source>
Mulliner

> <ID>
HT1248

> <H_MFHB>
0

> <CAS>


> <Cholestasis>


> <Name>
l-phenylalanine

> <Class>
0


$$$$