
  -INDIGO-08031710012D

 33 36  0  0  0  0  0  0  0  0999 V2000
   -4.7407   -2.6722    0.0000 C   0  0  0  0  0  0  0  0  0  0  0  0
   -5.5174   -3.9554    0.0000 C   0  0  0  0  0  0  0  0  0  0  0  0
   -6.2634   -2.6540    0.0000 C   0  0  0  0  0  0  0  0  0  0  0  0
   -7.7634   -2.6492    0.0000 C   0  0  0  0  0  0  0  0  0  0  0  0
   -8.5174   -3.9458    0.0000 C   0  0  0  0  0  0  0  0  0  0  0  0
  -10.0174   -3.9410    0.0000 O   0  0  0  0  0  0  0  0  0  0  0  0
   -7.7715   -5.2472    0.0000 C   0  0  0  0  0  0  0  0  0  0  0  0
   -6.2715   -5.2521    0.0000 C   0  0  0  0  0  0  0  0  0  0  0  0
   -5.5258   -6.5535    0.0000 C   0  0  0  0  0  0  0  0  0  0  0  0
   -4.0259   -6.5583    0.0000 C   0  0  0  0  0  0  0  0  0  0  0  0
   -3.2715   -5.2617    0.0000 C   0  0  0  0  0  0  0  0  0  0  0  0
   -1.7718   -5.2665    0.0000 C   0  0  0  0  0  0  0  0  0  0  0  0
   -0.7716   -6.3844    0.0000 C   0  0  0  0  0  0  0  0  0  0  0  0
    0.6007   -5.7787    0.0000 C   0  0  0  0  0  0  0  0  0  0  0  0
    0.4486   -4.2865    0.0000 C   0  0  0  0  0  0  0  0  0  0  0  0
    0.8416   -2.8388    0.0000 O   0  0  0  0  0  0  0  0  0  0  0  0
    1.9115   -3.9537    0.0000 C   0  0  0  0  0  0  0  0  0  0  0  0
    2.3544   -2.5207    0.0000 O   0  0  0  0  0  0  0  0  0  0  0  0
    2.9307   -5.0540    0.0000 C   0  0  0  0  0  0  0  0  0  0  0  0
    4.3937   -4.7213    0.0000 O   0  0  0  0  0  0  0  0  0  0  0  0
    5.4128   -5.8216    0.0000 C   0  0  0  0  0  0  0  0  0  0  0  0
    4.9697   -7.2546    0.0000 O   0  0  0  0  0  0  0  0  0  0  0  0
    6.8755   -5.4889    0.0000 C   0  0  0  0  0  0  0  0  0  0  0  0
    7.8950   -6.5892    0.0000 C   0  0  0  0  0  0  0  0  0  0  0  0
    9.3576   -6.2564    0.0000 C   0  0  0  0  0  0  0  0  0  0  0  0
    9.8008   -4.8234    0.0000 O   0  0  0  0  0  0  0  0  0  0  0  0
   10.3771   -7.3567    0.0000 O   0  0  0  0  0  0  0  0  0  0  0  0
   -1.0175   -3.9699    0.0000 C   0  0  0  0  0  0  0  0  0  0  0  0
   -0.1318   -2.7592    0.0000 C   0  0  0  0  0  0  0  0  0  0  0  0
   -1.7634   -2.6684    0.0000 C   0  0  0  0  0  0  0  0  0  0  0  0
   -3.2634   -2.6636    0.0000 C   0  0  0  0  0  0  0  0  0  0  0  0
   -4.0091   -1.3622    0.0000 O   0  0  0  0  0  0  0  0  0  0  0  0
   -4.0175   -3.9603    0.0000 C   0  0  0  0  0  0  0  0  0  0  0  0
  1  2  1  0  0  0  0
  3  2  1  0  0  0  0
  8  2  1  0  0  0  0
  2 33  1  0  0  0  0
  4  3  1  0  0  0  0
  5  4  1  0  0  0  0
  5  6  2  0  0  0  0
  7  5  1  0  0  0  0
  8  7  2  0  0  0  0
  9  8  1  0  0  0  0
 10  9  1  0  0  0  0
 11 10  1  0  0  0  0
 12 11  1  0  0  0  0
 11 33  1  0  0  0  0
 13 12  1  0  0  0  0
 12 28  1  0  0  0  0
 14 13  1  0  0  0  0
 15 14  1  0  0  0  0
 15 16  1  0  0  0  0
 15 17  1  0  0  0  0
 28 15  1  0  0  0  0
 17 18  2  0  0  0  0
 17 19  1  0  0  0  0
 19 20  1  0  0  0  0
 20 21  1  0  0  0  0
 21 22  2  0  0  0  0
 21 23  1  0  0  0  0
 23 24  1  0  0  0  0
 24 25  1  0  0  0  0
 25 26  2  0  0  0  0
 25 27  1  0  0  0  0
 28 29  1  0  0  0  0
 30 28  1  0  0  0  0
 31 30  1  0  0  0  0
 31 32  1  0  0  0  0
 33 31  1  0  0  0  0
M  END
> <Inchi_key>
VWQWXZAWFPZJDA-UHFFFAOYSA-N

> <Source>
Mulliner

> <ID>
HT1053

> <H_MFHB>
0

> <CAS>


> <Cholestasis>


> <Name>
hydrocortisone sodium succinate

> <Class>
0

$$$$