
  -INDIGO-08031710012D

 31 34  0  0  0  0  0  0  0  0999 V2000
   23.0027   -6.1636    0.0000 C   0  0  0  0  0  0  0  0  0  0  0  0
   21.7037   -5.4135    0.0000 C   0  0  0  0  0  0  0  0  0  0  0  0
   21.7037   -3.9135    0.0000 O   0  0  0  0  0  0  0  0  0  0  0  0
   20.4046   -6.1636    0.0000 O   0  0  0  0  0  0  0  0  0  0  0  0
   19.1056   -5.4135    0.0000 C   0  0  0  0  0  0  0  0  0  0  0  0
   17.8065   -6.1636    0.0000 C   0  0  0  0  0  0  0  0  0  0  0  0
   16.5075   -5.4135    0.0000 N   0  0  0  0  0  0  0  0  0  0  0  0
   15.2085   -6.1636    0.0000 C   0  0  0  0  0  0  0  0  0  0  0  0
   13.9094   -5.4135    0.0000 C   0  0  0  0  0  0  0  0  0  0  0  0
   13.9094   -3.9135    0.0000 N   0  0  0  0  0  0  0  0  0  0  0  0
   12.6104   -3.1636    0.0000 C   0  0  0  0  0  0  0  0  0  0  0  0
   11.3113   -3.9135    0.0000 C   0  0  0  0  0  0  0  0  0  0  0  0
   10.0123   -3.1636    0.0000 C   0  0  0  0  0  0  0  0  0  0  0  0
    8.7133   -3.9135    0.0000 C   0  0  0  0  0  0  0  0  0  0  0  0
    7.4142   -3.1636    0.0000 C   0  0  0  0  0  0  0  0  0  0  0  0
    6.1152   -3.9135    0.0000 C   0  0  0  0  0  0  0  0  0  0  0  0
    6.1152   -5.4135    0.0000 C   0  0  0  0  0  0  0  0  0  0  0  0
    4.8161   -6.1636    0.0000 C   0  0  0  0  0  0  0  0  0  0  0  0
    3.5171   -5.4135    0.0000 C   0  0  0  0  0  0  0  0  0  0  0  0
    3.5171   -3.9135    0.0000 C   0  0  0  0  0  0  0  0  0  0  0  0
    4.8161   -3.1636    0.0000 C   0  0  0  0  0  0  0  0  0  0  0  0
    4.8161   -1.6636    0.0000 S   0  0  0  0  0  0  0  0  0  0  0  0
    6.1152   -0.9135    0.0000 C   0  0  0  0  0  0  0  0  0  0  0  0
    6.1152    0.5865    0.0000 C   0  0  0  0  0  0  0  0  0  0  0  0
    7.4142    1.3364    0.0000 C   0  0  0  0  0  0  0  0  0  0  0  0
    8.7133    0.5865    0.0000 C   0  0  0  0  0  0  0  0  0  0  0  0
   10.0123    1.3364    0.0000 Cl  0  0  0  0  0  0  0  0  0  0  0  0
    8.7133   -0.9135    0.0000 C   0  0  0  0  0  0  0  0  0  0  0  0
    7.4142   -1.6636    0.0000 C   0  0  0  0  0  0  0  0  0  0  0  0
   15.2085   -3.1636    0.0000 C   0  0  0  0  0  0  0  0  0  0  0  0
   16.5075   -3.9135    0.0000 C   0  0  0  0  0  0  0  0  0  0  0  0
  1  2  1  0  0  0  0
  2  3  2  0  0  0  0
  2  4  1  0  0  0  0
  4  5  1  0  0  0  0
  5  6  1  0  0  0  0
  6  7  1  0  0  0  0
  8  7  1  0  0  0  0
  7 31  1  0  0  0  0
  9  8  1  0  0  0  0
 10  9  1  0  0  0  0
 10 11  1  0  0  0  0
 30 10  1  0  0  0  0
 11 12  1  0  0  0  0
 12 13  1  0  0  0  0
 13 14  1  0  0  0  0
 14 15  2  0  0  0  0
 16 15  1  0  0  0  0
 15 29  1  0  0  0  0
 17 16  2  0  0  0  0
 16 21  1  0  0  0  0
 18 17  1  0  0  0  0
 19 18  2  0  0  0  0
 20 19  1  0  0  0  0
 21 20  2  0  0  0  0
 22 21  1  0  0  0  0
 23 22  1  0  0  0  0
 24 23  2  0  0  0  0
 23 29  1  0  0  0  0
 25 24  1  0  0  0  0
 26 25  2  0  0  0  0
 26 27  1  0  0  0  0
 28 26  1  0  0  0  0
 29 28  2  0  0  0  0
 31 30  1  0  0  0  0
M  END
> <Inchi_key>
YOAZQKVCYSCRFE-MPUCSWFWSA-N

> <Source>
Mulliner

> <ID>
HT2272

> <H_MFHB>
0

> <CAS>


> <Cholestasis>


> <Name>


> <Class>
0

$$$$