
  -INDIGO-08031710012D

 26 27  0  0  0  0  0  0  0  0999 V2000
    7.4969   -0.1188    0.0000 C   0  0  0  0  0  0  0  0  0  0  0  0
    5.9976   -0.0714    0.0000 C   0  0  0  0  0  0  0  0  0  0  0  0
    5.2893    1.2508    0.0000 C   0  0  0  0  0  0  0  0  0  0  0  0
    6.0799    2.5255    0.0000 O   0  0  0  0  0  0  0  0  0  0  0  0
    7.5792    2.4780    0.0000 C   0  0  0  0  0  0  0  0  0  0  0  0
    8.2877    1.1559    0.0000 O   0  0  0  0  0  0  0  0  0  0  0  0
    8.3700    3.7525    0.0000 C   0  0  0  0  0  0  0  0  0  0  0  0
    3.7899    1.2984    0.0000 C   0  0  0  0  0  0  0  0  0  0  0  0
    3.8374    2.7978    0.0000 C   0  0  0  0  0  0  0  0  0  0  0  0
    2.8109    3.8914    0.0000 C   0  0  0  0  0  0  0  0  0  0  0  0
    1.3505    3.5494    0.0000 C   0  0  0  0  0  0  0  0  0  0  0  0
    3.2449    5.3272    0.0000 N   0  0  0  0  0  0  0  0  0  0  0  0
    4.7053    5.6694    0.0000 C   0  0  0  0  0  0  0  0  0  0  0  0
    2.2183    6.4210    0.0000 C   0  0  0  0  0  0  0  0  0  0  0  0
    3.7424   -0.2008    0.0000 C   0  0  0  0  0  0  0  0  0  0  0  0
    5.0170   -0.9916    0.0000 C   0  0  0  0  0  0  0  0  0  0  0  0
    4.9695   -2.4909    0.0000 C   0  0  0  0  0  0  0  0  0  0  0  0
    3.6473   -3.1993    0.0000 C   0  0  0  0  0  0  0  0  0  0  0  0
    2.3727   -2.4087    0.0000 C   0  0  0  0  0  0  0  0  0  0  0  0
    2.4202   -0.9093    0.0000 C   0  0  0  0  0  0  0  0  0  0  0  0
    2.2907    1.3460    0.0000 C   0  0  0  0  0  0  0  0  0  0  0  0
    1.7332   -0.0466    0.0000 C   0  0  0  0  0  0  0  0  0  0  0  0
    0.2485   -0.2601    0.0000 C   0  0  0  0  0  0  0  0  0  0  0  0
   -0.6788    0.9188    0.0000 C   0  0  0  0  0  0  0  0  0  0  0  0
   -0.1212    2.3114    0.0000 C   0  0  0  0  0  0  0  0  0  0  0  0
    1.3633    2.5250    0.0000 C   0  0  0  0  0  0  0  0  0  0  0  0
  1  2  1  0  0  0  0
  2  3  1  0  0  0  0
  3  4  1  0  0  0  0
  3  8  1  0  0  0  0
  4  5  1  0  0  0  0
  5  6  2  0  0  0  0
  5  7  1  0  0  0  0
  8  9  1  0  0  0  0
  8 15  1  0  0  0  0
  8 21  1  0  0  0  0
  9 10  1  0  0  0  0
 10 11  1  0  0  0  0
 10 12  1  0  0  0  0
 12 13  1  0  0  0  0
 12 14  1  0  0  0  0
 16 15  2  0  0  0  0
 15 20  1  0  0  0  0
 17 16  1  0  0  0  0
 18 17  2  0  0  0  0
 19 18  1  0  0  0  0
 20 19  2  0  0  0  0
 22 21  2  0  0  0  0
 21 26  1  0  0  0  0
 23 22  1  0  0  0  0
 24 23  2  0  0  0  0
 25 24  1  0  0  0  0
 26 25  2  0  0  0  0
M  END
> <Inchi_key>
XBMIVRRWGCYBTQ-UHFFFAOYSA-N

> <Source>
Mulliner

> <ID>
HT1198

> <H_MFHB>
0

> <CAS>
43033-72-3

> <Cholestasis>


> <Name>
levomethadyl acetate hydrochloride;levomethadyl acetate;methadyl acetate

> <Class>
0

$$$$