
  -INDIGO-08031710012D

 19 21  0  0  0  0  0  0  0  0999 V2000
   -0.4179   -2.6184    0.0000 N   0  0  0  0  0  0  0  0  0  0  0  0
    0.8917   -1.8873    0.0000 C   0  0  0  0  0  0  0  0  0  0  0  0
    0.9134   -0.3874    0.0000 N   0  0  0  0  0  0  0  0  0  0  0  0
    2.2232    0.3437    0.0000 C   0  0  0  0  0  0  0  0  0  0  0  0
    2.2449    1.8436    0.0000 Cl  0  0  0  0  0  0  0  0  0  0  0  0
    3.5113   -0.4250    0.0000 N   0  0  0  0  0  0  0  0  0  0  0  0
    3.4896   -1.9248    0.0000 C   0  0  0  0  0  0  0  0  0  0  0  0
    2.1800   -2.6560    0.0000 C   0  0  0  0  0  0  0  0  0  0  0  0
    2.4704   -4.1275    0.0000 N   0  0  0  0  0  0  0  0  0  0  0  0
    3.9599   -4.3059    0.0000 C   0  0  0  0  0  0  0  0  0  0  0  0
    4.5897   -2.9445    0.0000 N   0  0  0  0  0  0  0  0  0  0  0  0
    6.0613   -2.6539    0.0000 C   0  0  0  0  0  0  0  0  0  0  0  0
    6.6912   -1.2925    0.0000 C   0  0  0  0  0  0  0  0  0  0  0  0
    8.1804   -1.4709    0.0000 C   0  0  0  0  0  0  0  0  0  0  0  0
    9.2002   -0.3708    0.0000 O   0  0  0  0  0  0  0  0  0  0  0  0
    8.4711   -2.9425    0.0000 C   0  0  0  0  0  0  0  0  0  0  0  0
    9.8325   -3.5723    0.0000 C   0  0  0  0  0  0  0  0  0  0  0  0
    9.9677   -5.0662    0.0000 O   0  0  0  0  0  0  0  0  0  0  0  0
    7.1614   -3.6736    0.0000 O   0  0  0  0  0  0  0  0  0  0  0  0
  1  2  1  0  0  0  0
  3  2  2  0  0  0  0
  2  8  1  0  0  0  0
  4  3  1  0  0  0  0
  4  5  1  0  0  0  0
  6  4  2  0  0  0  0
  7  6  1  0  0  0  0
  7  8  2  0  0  0  0
 11  7  1  0  0  0  0
  8  9  1  0  0  0  0
  9 10  2  0  0  0  0
 10 11  1  0  0  0  0
 11 12  1  0  0  0  0
 13 12  1  0  0  0  0
 12 19  1  0  0  0  0
 14 13  1  0  0  0  0
 14 15  1  0  0  0  0
 16 14  1  0  0  0  0
 16 17  1  0  0  0  0
 19 16  1  0  0  0  0
 17 18  1  0  0  0  0
M  END
> <Inchi_key>
PTOAARAWEBMLNO-UHFFFAOYSA-N

> <Source>
Mulliner , Kotsampasakou

> <ID>
EK0126;HT0503

> <H_MFHB>
0

> <CAS>


> <Cholestasis>
0

> <Name>
cladribine

> <Class>
0

$$$$