
  -INDIGO-08031710012D

  4  3  0  0  0  0  0  0  0  0999 V2000
   -0.0736   -1.0245    0.0000 N   0  0  0  0  0  0  0  0  0  0  0  0
    1.2255   -0.2745    0.0000 C   0  0  0  0  0  0  0  0  0  0  0  0
    2.5245   -1.0245    0.0000 C   0  0  0  0  0  0  0  0  0  0  0  0
    3.8236   -0.2745    0.0000 N   0  0  0  0  0  0  0  0  0  0  0  0
  1  2  1  0  0  0  0
  2  3  1  0  0  0  0
  3  4  1  0  0  0  0
M  END
> <Inchi_key>
PIICEJLVQHRZGT-UHFFFAOYSA-N

> <Source>
Mulliner

> <ID>
HT2306

> <H_MFHB>
0

> <CAS>
15467-15-9;107-15-3

> <Cholestasis>


> <Name>


> <Class>
0

$$$$