

  -INDIGO-08031710012D

 23 25  0  0  0  0  0  0  0  0999 V2000
    9.2746    2.4851    0.0000 C   0  0  0  0  0  0  0  0  0  0  0  0
    7.9755    1.7351    0.0000 C   0  0  0  0  0  0  0  0  0  0  0  0
    6.6765    2.4851    0.0000 C   0  0  0  0  0  0  0  0  0  0  0  0
    5.3774    1.7351    0.0000 C   0  0  0  0  0  0  0  0  0  0  0  0
    4.0784    2.4851    0.0000 C   0  0  0  0  0  0  0  0  0  0  0  0
    2.7795    1.7351    0.0000 C   0  0  0  0  0  0  0  0  0  0  0  0
    2.7795    0.2351    0.0000 C   0  0  0  0  0  0  0  0  0  0  0  0
    1.4804   -0.5149    0.0000 C   0  0  0  0  0  0  0  0  0  0  0  0
    0.1814    0.2351    0.0000 C   0  0  0  0  0  0  0  0  0  0  0  0
   -1.1177   -0.5149    0.0000 N   0  0  0  0  0  0  0  0  0  0  0  0
    0.1814    1.7351    0.0000 C   0  0  0  0  0  0  0  0  0  0  0  0
    1.4804    2.4851    0.0000 C   0  0  0  0  0  0  0  0  0  0  0  0
    4.0784    3.9852    0.0000 C   0  0  0  0  0  0  0  0  0  0  0  0
    5.3774    4.7351    0.0000 C   0  0  0  0  0  0  0  0  0  0  0  0
    5.3774    6.2351    0.0000 C   0  0  0  0  0  0  0  0  0  0  0  0
    4.0784    6.9852    0.0000 C   0  0  0  0  0  0  0  0  0  0  0  0
    4.0784    8.4851    0.0000 N   0  0  0  0  0  0  0  0  0  0  0  0
    2.7795    6.2351    0.0000 C   0  0  0  0  0  0  0  0  0  0  0  0
    2.7795    4.7351    0.0000 C   0  0  0  0  0  0  0  0  0  0  0  0
    5.3774    0.2351    0.0000 C   0  0  0  0  0  0  0  0  0  0  0  0
    6.6765   -0.5149    0.0000 C   0  0  0  0  0  0  0  0  0  0  0  0
    7.9755    0.2351    0.0000 C   0  0  0  0  0  0  0  0  0  0  0  0
    9.2746   -0.5149    0.0000 N   0  0  0  0  0  0  0  0  0  0  0  0
  1  2  1  0  0  0  0
  3  2  2  0  0  0  0
  2 22  1  0  0  0  0
  4  3  1  0  0  0  0
  4  5  2  0  0  0  0
 20  4  1  0  0  0  0
  5  6  1  0  0  0  0
  5 13  1  0  0  0  0
  7  6  2  0  0  0  0
  6 12  1  0  0  0  0
  8  7  1  0  0  0  0
  9  8  2  0  0  0  0
  9 10  1  0  0  0  0
 11  9  1  0  0  0  0
 12 11  2  0  0  0  0
 14 13  2  0  0  0  0
 13 19  1  0  0  0  0
 15 14  1  0  0  0  0
 16 15  2  0  0  0  0
 16 17  1  0  0  0  0
 18 16  1  0  0  0  0
 19 18  2  0  0  0  0
 21 20  2  0  0  0  0
 22 21  1  0  0  0  0
 22 23  2  0  0  0  0
M  END
> <Inchi_key>
YDCMWLQSPFTWCS-UHFFFAOYSA-N

> <Source>
Mulliner

> <ID>
HT3362

> <H_MFHB>
0

> <CAS>


> <Cholestasis>


> <Name>


> <Class>
0


$$$$