
  -INDIGO-08031710012D

 30 33  0  0  0  0  0  0  0  0999 V2000
    7.0871    7.2118    0.0000 C   0  0  0  0  0  0  0  0  0  0  0  0
    7.1133    5.7120    0.0000 C   0  0  0  0  0  0  0  0  0  0  0  0
    8.4251    4.9848    0.0000 O   0  0  0  0  0  0  0  0  0  0  0  0
    5.8274    4.9394    0.0000 O   0  0  0  0  0  0  0  0  0  0  0  0
    4.5154    5.6666    0.0000 C   0  0  0  0  0  0  0  0  0  0  0  0
    4.4892    7.1664    0.0000 C   0  0  0  0  0  0  0  0  0  0  0  0
    3.1774    7.8935    0.0000 C   0  0  0  0  0  0  0  0  0  0  0  0
    1.8915    7.1211    0.0000 C   0  0  0  0  0  0  0  0  0  0  0  0
    1.9177    5.6213    0.0000 C   0  0  0  0  0  0  0  0  0  0  0  0
    3.2298    4.8941    0.0000 C   0  0  0  0  0  0  0  0  0  0  0  0
    0.5797    7.8483    0.0000 C   0  0  0  0  0  0  0  0  0  0  0  0
    1.4615    9.0619    0.0000 C   0  0  0  0  0  0  0  0  0  0  0  0
    2.9613    9.0619    0.0000 O   0  0  0  0  0  0  0  0  0  0  0  0
    0.5797   10.2752    0.0000 N   0  0  0  0  0  0  0  0  0  0  0  0
   -0.8468    9.8118    0.0000 C   0  0  0  0  0  0  0  0  0  0  0  0
   -2.1459   10.5618    0.0000 C   0  0  0  0  0  0  0  0  0  0  0  0
   -3.4451    9.8118    0.0000 C   0  0  0  0  0  0  0  0  0  0  0  0
   -3.4451    8.3118    0.0000 C   0  0  0  0  0  0  0  0  0  0  0  0
   -2.1459    7.5618    0.0000 C   0  0  0  0  0  0  0  0  0  0  0  0
   -0.8468    8.3118    0.0000 C   0  0  0  0  0  0  0  0  0  0  0  0
   -0.1928    6.5625    0.0000 C   0  0  0  0  0  0  0  0  0  0  0  0
   -1.6927    6.5887    0.0000 C   0  0  0  0  0  0  0  0  0  0  0  0
   -2.4652    5.3030    0.0000 C   0  0  0  0  0  0  0  0  0  0  0  0
   -1.7380    3.9910    0.0000 C   0  0  0  0  0  0  0  0  0  0  0  0
   -2.5105    2.7053    0.0000 O   0  0  0  0  0  0  0  0  0  0  0  0
   -4.0104    2.7316    0.0000 C   0  0  0  0  0  0  0  0  0  0  0  0
   -4.7829    1.4457    0.0000 O   0  0  0  0  0  0  0  0  0  0  0  0
   -4.7376    4.0434    0.0000 C   0  0  0  0  0  0  0  0  0  0  0  0
   -0.2381    3.9649    0.0000 C   0  0  0  0  0  0  0  0  0  0  0  0
    0.5344    5.2506    0.0000 C   0  0  0  0  0  0  0  0  0  0  0  0
  1  2  1  0  0  0  0
  2  3  2  0  0  0  0
  2  4  1  0  0  0  0
  4  5  1  0  0  0  0
  6  5  2  0  0  0  0
  5 10  1  0  0  0  0
  7  6  1  0  0  0  0
  8  7  2  0  0  0  0
  9  8  1  0  0  0  0
  8 11  1  0  0  0  0
 10  9  2  0  0  0  0
 12 11  1  0  0  0  0
 11 20  1  0  0  0  0
 11 21  1  0  0  0  0
 12 13  2  0  0  0  0
 14 12  1  0  0  0  0
 15 14  1  0  0  0  0
 16 15  1  0  0  0  0
 15 20  2  0  0  0  0
 17 16  2  0  0  0  0
 18 17  1  0  0  0  0
 19 18  2  0  0  0  0
 20 19  1  0  0  0  0
 22 21  2  0  0  0  0
 21 30  1  0  0  0  0
 23 22  1  0  0  0  0
 24 23  2  0  0  0  0
 24 25  1  0  0  0  0
 29 24  1  0  0  0  0
 25 26  1  0  0  0  0
 26 27  2  0  0  0  0
 26 28  1  0  0  0  0
 30 29  2  0  0  0  0
M  END
> <Inchi_key>
PHPUXYRXPHEJDF-UHFFFAOYSA-N

> <Source>
Mulliner

> <ID>
HT3760

> <H_MFHB>
0

> <CAS>


> <Cholestasis>


> <Name>


> <Class>
0

$$$$