

  -INDIGO-08031710012D

 28 31  0  0  0  0  0  0  0  0999 V2000
   -4.6359   -3.3682    0.0000 O   0  0  0  0  0  0  0  0  0  0  0  0
   -5.0994   -4.7948    0.0000 C   0  0  0  0  0  0  0  0  0  0  0  0
   -6.5261   -5.2583    0.0000 N   0  0  0  0  0  0  0  0  0  0  0  0
   -4.2178   -6.0083    0.0000 N   0  0  0  0  0  0  0  0  0  0  0  0
   -5.0994   -7.2218    0.0000 C   0  0  0  0  0  0  0  0  0  0  0  0
   -2.7178   -6.0083    0.0000 C   0  0  0  0  0  0  0  0  0  0  0  0
   -6.5261   -6.7583    0.0000 C   0  0  0  0  0  0  0  0  0  0  0  0
   -4.7877   -8.6891    0.0000 C   0  0  0  0  0  0  0  0  0  0  0  0
   -1.9678   -4.7093    0.0000 C   0  0  0  0  0  0  0  0  0  0  0  0
   -1.9678   -7.3072    0.0000 C   0  0  0  0  0  0  0  0  0  0  0  0
   -7.6407   -7.7620    0.0000 C   0  0  0  0  0  0  0  0  0  0  0  0
   -5.9023   -9.6927    0.0000 C   0  0  0  0  0  0  0  0  0  0  0  0
   -0.4678   -4.7093    0.0000 C   0  0  0  0  0  0  0  0  0  0  0  0
   -0.4678   -7.3072    0.0000 C   0  0  0  0  0  0  0  0  0  0  0  0
   -7.3289   -9.2291    0.0000 C   0  0  0  0  0  0  0  0  0  0  0  0
    0.2823   -6.0083    0.0000 N   0  0  0  0  0  0  0  0  0  0  0  0
    1.7823   -6.0083    0.0000 C   0  0  0  0  0  0  0  0  0  0  0  0
    2.5323   -4.7093    0.0000 C   0  0  0  0  0  0  0  0  0  0  0  0
    4.0323   -4.7093    0.0000 C   0  0  0  0  0  0  0  0  0  0  0  0
    4.7821   -3.4102    0.0000 C   0  0  0  0  0  0  0  0  0  0  0  0
    4.0323   -2.1112    0.0000 O   0  0  0  0  0  0  0  0  0  0  0  0
    6.2821   -3.4102    0.0000 C   0  0  0  0  0  0  0  0  0  0  0  0
    7.0321   -4.7093    0.0000 C   0  0  0  0  0  0  0  0  0  0  0  0
    7.0321   -2.1112    0.0000 C   0  0  0  0  0  0  0  0  0  0  0  0
    8.5322   -4.7093    0.0000 C   0  0  0  0  0  0  0  0  0  0  0  0
    8.5322   -2.1112    0.0000 C   0  0  0  0  0  0  0  0  0  0  0  0
    9.2822   -3.4102    0.0000 C   0  0  0  0  0  0  0  0  0  0  0  0
   10.7822   -3.4102    0.0000 F   0  0  0  0  0  0  0  0  0  0  0  0
  1  2  2  0  0  0  0
  3  2  1  0  0  0  0
  2  4  1  0  0  0  0
  4  5  1  0  0  0  0
  4  6  1  0  0  0  0
  7  5  2  0  0  0  0
  5  8  1  0  0  0  0
  9  6  2  0  0  0  0
  6 10  1  0  0  0  0
  7  3  1  0  0  0  0
 11  7  1  0  0  0  0
  8 12  2  0  0  0  0
 13  9  1  0  0  0  0
 10 14  1  0  0  0  0
 15 11  2  0  0  0  0
 12 15  1  0  0  0  0
 16 13  1  0  0  0  0
 14 16  1  0  0  0  0
 16 17  1  0  0  0  0
 17 18  1  0  0  0  0
 18 19  1  0  0  0  0
 19 20  1  0  0  0  0
 20 21  2  0  0  0  0
 20 22  1  0  0  0  0
 23 22  2  0  0  0  0
 22 24  1  0  0  0  0
 25 23  1  0  0  0  0
 24 26  2  0  0  0  0
 27 25  2  0  0  0  0
 26 27  1  0  0  0  0
 27 28  1  0  0  0  0
M  END
> <Inchi_key>
RMEDXOLNCUSCGS-UHFFFAOYSA-N

> <Source>
Mulliner , Kotsampasakou

> <ID>
EK0178;HT0726

> <H_MFHB>
0

> <CAS>


> <Cholestasis>
0

> <Name>
droperidol

> <Class>
0


$$$$