
  -INDIGO-08031710012D

 17 18  0  0  0  0  0  0  0  0999 V2000
   11.1607   -2.9905    0.0000 N   0  0  0  0  0  0  0  0  0  0  0  0
    9.8616   -2.2405    0.0000 C   0  0  0  0  0  0  0  0  0  0  0  0
    9.8616   -0.7405    0.0000 C   0  0  0  0  0  0  0  0  0  0  0  0
    8.5626    0.0095    0.0000 C   0  0  0  0  0  0  0  0  0  0  0  0
    7.2635   -0.7405    0.0000 C   0  0  0  0  0  0  0  0  0  0  0  0
    7.2635   -2.2405    0.0000 C   0  0  0  0  0  0  0  0  0  0  0  0
    8.5626   -2.9905    0.0000 C   0  0  0  0  0  0  0  0  0  0  0  0
    5.9645    0.0095    0.0000 S   0  0  0  0  0  0  0  0  0  0  0  0
    5.2146   -1.2895    0.0000 O   0  0  0  0  0  0  0  0  0  0  0  0
    6.7145    1.3085    0.0000 O   0  0  0  0  0  0  0  0  0  0  0  0
    4.6656    0.7595    0.0000 N   0  0  0  0  0  0  0  0  0  0  0  0
    3.3665    0.0095    0.0000 C   0  0  0  0  0  0  0  0  0  0  0  0
    3.3665   -1.4905    0.0000 N   0  0  0  0  0  0  0  0  0  0  0  0
    2.0675   -2.2405    0.0000 C   0  0  0  0  0  0  0  0  0  0  0  0
    0.7684   -1.4905    0.0000 C   0  0  0  0  0  0  0  0  0  0  0  0
    0.7684    0.0095    0.0000 C   0  0  0  0  0  0  0  0  0  0  0  0
    2.0675    0.7595    0.0000 N   0  0  0  0  0  0  0  0  0  0  0  0
  1  2  1  0  0  0  0
  3  2  2  0  0  0  0
  2  7  1  0  0  0  0
  4  3  1  0  0  0  0
  5  4  2  0  0  0  0
  6  5  1  0  0  0  0
  5  8  1  0  0  0  0
  7  6  2  0  0  0  0
  8  9  2  0  0  0  0
  8 10  2  0  0  0  0
  8 11  1  0  0  0  0
 11 12  1  0  0  0  0
 13 12  2  0  0  0  0
 12 17  1  0  0  0  0
 14 13  1  0  0  0  0
 15 14  2  0  0  0  0
 16 15  1  0  0  0  0
 17 16  2  0  0  0  0
M  END
> <Inchi_key>
SEEPANYCNGTZFQ-UHFFFAOYSA-N

> <Source>
Mulliner

> <ID>
HT1937

> <H_MFHB>
0

> <CAS>


> <Cholestasis>


> <Name>
sulfadiazine;sulfadiazine sodium

> <Class>
0

$$$$