
  -INDIGO-08031710012D

 18 19  0  0  0  0  0  0  0  0999 V2000
    3.3583    3.5735    0.0000 C   0  0  0  0  0  0  0  0  0  0  0  0
    2.6083    2.2745    0.0000 C   0  0  0  0  0  0  0  0  0  0  0  0
    3.3583    0.9754    0.0000 C   0  0  0  0  0  0  0  0  0  0  0  0
    4.6574    1.7254    0.0000 C   0  0  0  0  0  0  0  0  0  0  0  0
    4.6574    3.2254    0.0000 O   0  0  0  0  0  0  0  0  0  0  0  0
    5.9564    0.9754    0.0000 N   0  0  0  0  0  0  0  0  0  0  0  0
    5.9564   -0.5246    0.0000 C   0  0  0  0  0  0  0  0  0  0  0  0
    7.2554   -1.2746    0.0000 O   0  0  0  0  0  0  0  0  0  0  0  0
    4.6574   -1.2746    0.0000 N   0  0  0  0  0  0  0  0  0  0  0  0
    3.3583   -0.5246    0.0000 C   0  0  0  0  0  0  0  0  0  0  0  0
    2.0594   -1.2746    0.0000 O   0  0  0  0  0  0  0  0  0  0  0  0
    1.8582    0.9754    0.0000 C   0  0  0  0  0  0  0  0  0  0  0  0
    1.2079   -0.3762    0.0000 C   0  0  0  0  0  0  0  0  0  0  0  0
   -0.2549   -0.7085    0.0000 C   0  0  0  0  0  0  0  0  0  0  0  0
   -1.4272    0.2273    0.0000 C   0  0  0  0  0  0  0  0  0  0  0  0
   -1.4272    1.7273    0.0000 C   0  0  0  0  0  0  0  0  0  0  0  0
   -0.2543    2.6619    0.0000 C   0  0  0  0  0  0  0  0  0  0  0  0
    1.2079    2.3270    0.0000 C   0  0  0  0  0  0  0  0  0  0  0  0
  1  2  1  0  0  0  0
  2  3  1  0  0  0  0
  4  3  1  0  0  0  0
  3 10  1  0  0  0  0
  3 12  1  0  0  0  0
  4  5  2  0  0  0  0
  6  4  1  0  0  0  0
  7  6  1  0  0  0  0
  7  8  2  0  0  0  0
  9  7  1  0  0  0  0
 10  9  1  0  0  0  0
 10 11  2  0  0  0  0
 13 12  2  0  0  0  0
 12 18  1  0  0  0  0
 14 13  1  0  0  0  0
 15 14  1  0  0  0  0
 16 15  1  0  0  0  0
 17 16  1  0  0  0  0
 18 17  1  0  0  0  0
M  END
> <Inchi_key>
PAZQYDJGLKSCSI-UHFFFAOYSA-N

> <Source>
Mulliner

> <ID>
HT1024

> <H_MFHB>
0

> <CAS>


> <Cholestasis>


> <Name>
heptabarbital

> <Class>
0

$$$$