
  -INDIGO-08031710012D

 18 19  0  0  0  0  0  0  0  0999 V2000
    1.2255   -1.2255    0.0000 C   0  0  0  0  0  0  0  0  0  0  0  0
    1.2255    0.2745    0.0000 C   0  0  0  0  0  0  0  0  0  0  0  0
   -0.0736    1.0245    0.0000 C   0  0  0  0  0  0  0  0  0  0  0  0
   -1.3727    0.2745    0.0000 C   0  0  0  0  0  0  0  0  0  0  0  0
   -1.3727   -1.2255    0.0000 C   0  0  0  0  0  0  0  0  0  0  0  0
   -2.6716   -1.9755    0.0000 C   0  0  0  0  0  0  0  0  0  0  0  0
   -3.9707   -1.2255    0.0000 C   0  0  0  0  0  0  0  0  0  0  0  0
   -3.9707    0.2745    0.0000 C   0  0  0  0  0  0  0  0  0  0  0  0
   -2.6716    1.0245    0.0000 C   0  0  0  0  0  0  0  0  0  0  0  0
    2.5245    1.0245    0.0000 N   0  0  0  0  0  0  0  0  0  0  0  0
    2.5245    2.5245    0.0000 C   0  0  0  0  0  0  0  0  0  0  0  0
    3.8236    0.2745    0.0000 C   0  0  0  0  0  0  0  0  0  0  0  0
    5.1227    1.0245    0.0000 C   0  0  0  0  0  0  0  0  0  0  0  0
    6.4216    0.2745    0.0000 C   0  0  0  0  0  0  0  0  0  0  0  0
    7.7207    1.0245    0.0000 C   0  0  0  0  0  0  0  0  0  0  0  0
    7.7207    2.5245    0.0000 C   0  0  0  0  0  0  0  0  0  0  0  0
    6.4216    3.2745    0.0000 C   0  0  0  0  0  0  0  0  0  0  0  0
    5.1227    2.5245    0.0000 C   0  0  0  0  0  0  0  0  0  0  0  0
  1  2  1  0  0  0  0
  2  3  1  0  0  0  0
  2 10  1  0  0  0  0
  3  4  1  0  0  0  0
  5  4  2  0  0  0  0
  4  9  1  0  0  0  0
  6  5  1  0  0  0  0
  7  6  2  0  0  0  0
  8  7  1  0  0  0  0
  9  8  2  0  0  0  0
 10 11  1  0  0  0  0
 10 12  1  0  0  0  0
 12 13  1  0  0  0  0
 14 13  2  0  0  0  0
 13 18  1  0  0  0  0
 15 14  1  0  0  0  0
 16 15  2  0  0  0  0
 17 16  1  0  0  0  0
 18 17  2  0  0  0  0
M  END
> <Inchi_key>
YXKTVDFXDRQTKV-UHFFFAOYSA-N

> <Source>
Mulliner

> <ID>
HT0253

> <H_MFHB>
0

> <CAS>


> <Cholestasis>


> <Name>
benzphetamine hydrochloride;benzphetamine

> <Class>
0

$$$$