
  -INDIGO-08031710012D

 11 10  0  0  0  0  0  0  0  0999 V2000
   -1.4109   -0.8146    0.0000 C   0  0  0  0  0  0  0  0  0  0  0  0
   -2.1609   -2.1136    0.0000 N   0  0  0  0  0  0  0  0  0  0  0  0
   -2.9109   -3.4127    0.0000 C   0  0  0  0  0  0  0  0  0  0  0  0
   -3.4600   -1.3636    0.0000 C   0  0  0  0  0  0  0  0  0  0  0  0
   -0.8619   -2.8636    0.0000 C   0  0  0  0  0  0  0  0  0  0  0  0
    0.4372   -2.1136    0.0000 C   0  0  0  0  0  0  0  0  0  0  0  0
    0.4372   -0.6136    0.0000 O   0  0  0  0  0  0  0  0  0  0  0  0
    1.7362   -2.8636    0.0000 C   0  0  0  0  0  0  0  0  0  0  0  0
    3.0352   -2.1136    0.0000 C   0  0  0  0  0  0  0  0  0  0  0  0
    3.0352   -0.6136    0.0000 O   0  0  0  0  0  0  0  0  0  0  0  0
    4.3343   -2.8636    0.0000 O   0  0  0  0  0  0  0  0  0  0  0  0
  1  2  1  0  0  0  0
  2  3  1  0  0  0  0
  2  4  1  0  0  0  0
  2  5  1  0  0  0  0
  5  6  1  0  0  0  0
  6  7  1  0  0  0  0
  6  8  1  0  0  0  0
  8  9  1  0  0  0  0
  9 10  2  0  0  0  0
  9 11  1  0  0  0  0
M  CHG  2   2   1  11  -1
M  END
> <Inchi_key>
PHIQHXFUZVPYII-UHFFFAOYSA-N

> <Source>
Mulliner , Kotsampasakou

> <ID>
EK0096;HT1195

> <H_MFHB>
0

> <CAS>


> <Cholestasis>
0

> <Name>
levocarnitine;l-carnitine;carnitine

> <Class>
0

$$$$