

  -INDIGO-08031710012D

 23 25  0  0  0  0  0  0  0  0999 V2000
   11.6585   -1.0287    0.0000 Cl  0  0  0  0  0  0  0  0  0  0  0  0
   10.3595   -0.2788    0.0000 C   0  0  0  0  0  0  0  0  0  0  0  0
    9.0604   -1.0287    0.0000 C   0  0  0  0  0  0  0  0  0  0  0  0
    7.7614   -0.2788    0.0000 C   0  0  0  0  0  0  0  0  0  0  0  0
    7.7614    1.2213    0.0000 C   0  0  0  0  0  0  0  0  0  0  0  0
    6.4623    1.9713    0.0000 C   0  0  0  0  0  0  0  0  0  0  0  0
    6.4623    3.4713    0.0000 C   0  0  0  0  0  0  0  0  0  0  0  0
    5.1633    4.2212    0.0000 N   0  0  0  0  0  0  0  0  0  0  0  0
    3.7930    3.6111    0.0000 C   0  0  0  0  0  0  0  0  0  0  0  0
    2.7893    4.7258    0.0000 C   0  0  0  0  0  0  0  0  0  0  0  0
    3.5393    6.0250    0.0000 N   0  0  0  0  0  0  0  0  0  0  0  0
    5.0065    5.7130    0.0000 C   0  0  0  0  0  0  0  0  0  0  0  0
    5.1633    1.2213    0.0000 O   0  0  0  0  0  0  0  0  0  0  0  0
    5.1633   -0.2788    0.0000 C   0  0  0  0  0  0  0  0  0  0  0  0
    3.8644   -1.0287    0.0000 C   0  0  0  0  0  0  0  0  0  0  0  0
    2.4939   -0.4187    0.0000 C   0  0  0  0  0  0  0  0  0  0  0  0
    1.4903   -1.5333    0.0000 C   0  0  0  0  0  0  0  0  0  0  0  0
    2.2403   -2.8324    0.0000 S   0  0  0  0  0  0  0  0  0  0  0  0
    3.7075   -2.5205    0.0000 C   0  0  0  0  0  0  0  0  0  0  0  0
    4.8221   -3.5242    0.0000 Cl  0  0  0  0  0  0  0  0  0  0  0  0
    9.0604    1.9713    0.0000 C   0  0  0  0  0  0  0  0  0  0  0  0
    9.0604    3.4713    0.0000 Cl  0  0  0  0  0  0  0  0  0  0  0  0
   10.3595    1.2213    0.0000 C   0  0  0  0  0  0  0  0  0  0  0  0
  1  2  1  0  0  0  0
  3  2  2  0  0  0  0
  2 23  1  0  0  0  0
  4  3  1  0  0  0  0
  5  4  2  0  0  0  0
  5  6  1  0  0  0  0
 21  5  1  0  0  0  0
  6  7  1  0  0  0  0
  6 13  1  0  0  0  0
  7  8  1  0  0  0  0
  9  8  1  0  0  0  0
  8 12  1  0  0  0  0
 10  9  2  0  0  0  0
 11 10  1  0  0  0  0
 12 11  2  0  0  0  0
 13 14  1  0  0  0  0
 14 15  1  0  0  0  0
 16 15  1  0  0  0  0
 15 19  2  0  0  0  0
 17 16  2  0  0  0  0
 18 17  1  0  0  0  0
 19 18  1  0  0  0  0
 19 20  1  0  0  0  0
 21 22  1  0  0  0  0
 23 21  2  0  0  0  0
M  END
> <Inchi_key>
QXHHHPZILQDDPS-UHFFFAOYSA-N

> <Source>
Mulliner , Kotsampasakou

> <ID>
EK0531;HT2066

> <H_MFHB>
0

> <CAS>


> <Cholestasis>
0

> <Name>
tioconazole

> <Class>
0


$$$$