

  -INDIGO-08031710012D

 15 15  0  0  0  0  0  0  0  0999 V2000
    3.6517    0.8517    0.0000 N   0  0  0  0  0  0  0  0  0  0  0  0
    3.6517    2.3517    0.0000 C   0  0  0  0  0  0  0  0  0  0  0  0
    2.3525    3.1017    0.0000 C   0  0  0  0  0  0  0  0  0  0  0  0
    2.3525    4.6017    0.0000 O   0  0  0  0  0  0  0  0  0  0  0  0
    1.0537    2.3517    0.0000 C   0  0  0  0  0  0  0  0  0  0  0  0
    1.0537    0.8517    0.0000 C   0  0  0  0  0  0  0  0  0  0  0  0
   -0.2453    0.1017    0.0000 C   0  0  0  0  0  0  0  0  0  0  0  0
   -1.5445    0.8517    0.0000 C   0  0  0  0  0  0  0  0  0  0  0  0
   -2.8435    0.1017    0.0000 O   0  0  0  0  0  0  0  0  0  0  0  0
   -1.5445    2.3517    0.0000 C   0  0  0  0  0  0  0  0  0  0  0  0
   -2.8435    3.1017    0.0000 O   0  0  0  0  0  0  0  0  0  0  0  0
   -0.2453    3.1017    0.0000 C   0  0  0  0  0  0  0  0  0  0  0  0
    4.9507    3.1017    0.0000 C   0  0  0  0  0  0  0  0  0  0  0  0
    6.2497    2.3517    0.0000 O   0  0  0  0  0  0  0  0  0  0  0  0
    4.9507    4.6017    0.0000 O   0  0  0  0  0  0  0  0  0  0  0  0
  1  2  1  0  0  0  0
  2  3  1  0  0  0  0
  2 13  1  0  0  0  0
  3  4  1  0  0  0  0
  3  5  1  0  0  0  0
  6  5  2  0  0  0  0
  5 12  1  0  0  0  0
  7  6  1  0  0  0  0
  8  7  2  0  0  0  0
  8  9  1  0  0  0  0
 10  8  1  0  0  0  0
 10 11  1  0  0  0  0
 12 10  2  0  0  0  0
 13 14  2  0  0  0  0
 13 15  1  0  0  0  0
M  END
> <Inchi_key>
QXWYKJLNLSIPIN-UHFFFAOYSA-N

> <Source>
Mulliner

> <ID>
HT0731

> <H_MFHB>
0

> <CAS>


> <Cholestasis>


> <Name>
droxidopa

> <Class>
0


$$$$