

  -INDIGO-08031710012D

 28 31  0  0  0  0  0  0  0  0999 V2000
    5.6824   -4.3339    0.0000 C   0  0  0  0  0  0  0  0  0  0  0  0
    6.4325   -5.6329    0.0000 C   0  0  0  0  0  0  0  0  0  0  0  0
    7.9325   -5.6329    0.0000 O   0  0  0  0  0  0  0  0  0  0  0  0
    5.6824   -6.9320    0.0000 O   0  0  0  0  0  0  0  0  0  0  0  0
    4.1825   -6.9320    0.0000 C   0  0  0  0  0  0  0  0  0  0  0  0
    3.4324   -5.6329    0.0000 C   0  0  0  0  0  0  0  0  0  0  0  0
    1.9324   -5.6329    0.0000 C   0  0  0  0  0  0  0  0  0  0  0  0
    1.1826   -6.9320    0.0000 C   0  0  0  0  0  0  0  0  0  0  0  0
   -0.3174   -6.9320    0.0000 C   0  0  0  0  0  0  0  0  0  0  0  0
   -1.0675   -5.6329    0.0000 C   0  0  0  0  0  0  0  0  0  0  0  0
   -2.5674   -5.6329    0.0000 C   0  0  0  0  0  0  0  0  0  0  0  0
   -3.3175   -6.9320    0.0000 C   0  0  0  0  0  0  0  0  0  0  0  0
   -4.2411   -5.7499    0.0000 C   0  0  0  0  0  0  0  0  0  0  0  0
   -2.5674   -8.2310    0.0000 C   0  0  0  0  0  0  0  0  0  0  0  0
   -3.5712   -9.3457    0.0000 C   0  0  0  0  0  0  0  0  0  0  0  0
   -4.9414   -8.7356    0.0000 C   0  0  0  0  0  0  0  0  0  0  0  0
   -4.7847   -7.2438    0.0000 C   0  0  0  0  0  0  0  0  0  0  0  0
   -6.2596   -6.9705    0.0000 O   0  0  0  0  0  0  0  0  0  0  0  0
   -7.2339   -8.1111    0.0000 C   0  0  0  0  0  0  0  0  0  0  0  0
   -6.7331   -9.5250    0.0000 O   0  0  0  0  0  0  0  0  0  0  0  0
   -8.7087   -7.8377    0.0000 C   0  0  0  0  0  0  0  0  0  0  0  0
   -5.2106   -5.8056    0.0000 C   0  0  0  0  0  0  0  0  0  0  0  0
   -5.6367   -4.3674    0.0000 C   0  0  0  0  0  0  0  0  0  0  0  0
   -1.0675   -8.2310    0.0000 C   0  0  0  0  0  0  0  0  0  0  0  0
   -0.3174   -9.5300    0.0000 C   0  0  0  0  0  0  0  0  0  0  0  0
    1.1826   -9.5300    0.0000 C   0  0  0  0  0  0  0  0  0  0  0  0
    1.9324   -8.2310    0.0000 C   0  0  0  0  0  0  0  0  0  0  0  0
    3.4324   -8.2310    0.0000 C   0  0  0  0  0  0  0  0  0  0  0  0
  1  2  1  0  0  0  0
  2  3  2  0  0  0  0
  2  4  1  0  0  0  0
  4  5  1  0  0  0  0
  6  5  1  0  0  0  0
  5 28  1  0  0  0  0
  7  6  1  0  0  0  0
  8  7  1  0  0  0  0
  9  8  1  0  0  0  0
  8 27  1  0  0  0  0
 10  9  1  0  0  0  0
  9 24  1  0  0  0  0
 11 10  1  0  0  0  0
 12 11  1  0  0  0  0
 12 13  1  0  0  0  0
 12 14  1  0  0  0  0
 17 12  1  0  0  0  0
 14 15  1  0  0  0  0
 24 14  1  0  0  0  0
 15 16  1  0  0  0  0
 16 17  1  0  0  0  0
 17 18  1  0  0  0  0
 17 22  1  0  0  0  0
 18 19  1  0  0  0  0
 19 20  2  0  0  0  0
 19 21  1  0  0  0  0
 22 23  3  0  0  0  0
 25 24  1  0  0  0  0
 26 25  1  0  0  0  0
 27 26  1  0  0  0  0
 28 27  2  0  0  0  0
M  END
> <Inchi_key>
ONKUMRGIYFNPJW-UHFFFAOYSA-N

> <Source>
Mulliner

> <ID>
HT0823

> <H_MFHB>
0

> <CAS>


> <Cholestasis>


> <Name>
ethynodiol diacetate

> <Class>
0


$$$$