
  -INDIGO-08031710012D

 14 15  0  0  0  0  0  0  0  0999 V2000
    2.6787    2.6786    0.0000 O   0  0  0  0  0  0  0  0  0  0  0  0
    2.6787    1.1786    0.0000 C   0  0  0  0  0  0  0  0  0  0  0  0
    3.9776    0.4286    0.0000 C   0  0  0  0  0  0  0  0  0  0  0  0
    3.9776   -1.0714    0.0000 C   0  0  0  0  0  0  0  0  0  0  0  0
    5.2766   -1.8214    0.0000 C   0  0  0  0  0  0  0  0  0  0  0  0
    6.5757   -1.0714    0.0000 C   0  0  0  0  0  0  0  0  0  0  0  0
    6.5757    0.4286    0.0000 C   0  0  0  0  0  0  0  0  0  0  0  0
    5.2766    1.1786    0.0000 C   0  0  0  0  0  0  0  0  0  0  0  0
    1.3794    0.4286    0.0000 C   0  0  0  0  0  0  0  0  0  0  0  0
    1.3794   -1.0714    0.0000 C   0  0  0  0  0  0  0  0  0  0  0  0
    0.0805   -1.8214    0.0000 C   0  0  0  0  0  0  0  0  0  0  0  0
   -1.2185   -1.0714    0.0000 C   0  0  0  0  0  0  0  0  0  0  0  0
   -1.2185    0.4286    0.0000 C   0  0  0  0  0  0  0  0  0  0  0  0
    0.0805    1.1786    0.0000 C   0  0  0  0  0  0  0  0  0  0  0  0
  1  2  2  0  0  0  0
  2  3  1  0  0  0  0
  2  9  1  0  0  0  0
  4  3  2  0  0  0  0
  3  8  1  0  0  0  0
  5  4  1  0  0  0  0
  6  5  2  0  0  0  0
  7  6  1  0  0  0  0
  8  7  2  0  0  0  0
 10  9  2  0  0  0  0
  9 14  1  0  0  0  0
 11 10  1  0  0  0  0
 12 11  2  0  0  0  0
 13 12  1  0  0  0  0
 14 13  2  0  0  0  0
M  END
> <Inchi_key>
RWCCWEUUXYIKHB-UHFFFAOYSA-N

> <Source>
Mulliner

> <ID>
HT0251

> <H_MFHB>
0

> <CAS>
119-61-9

> <Cholestasis>


> <Name>
benzophenone

> <Class>
0

$$$$