
  -INDIGO-08031710012D

 31 34  0  0  0  0  0  0  0  0999 V2000
   -2.4179    3.1511    0.0000 N   0  0  0  0  0  0  0  0  0  0  0  0
   -2.0297    4.5999    0.0000 C   0  0  0  0  0  0  0  0  0  0  0  0
   -0.5809    4.9883    0.0000 C   0  0  0  0  0  0  0  0  0  0  0  0
   -0.1927    6.4371    0.0000 O   0  0  0  0  0  0  0  0  0  0  0  0
    0.4799    3.9276    0.0000 N   0  0  0  0  0  0  0  0  0  0  0  0
    1.9286    4.3158    0.0000 C   0  0  0  0  0  0  0  0  0  0  0  0
    3.2279    3.5658    0.0000 C   0  0  0  0  0  0  0  0  0  0  0  0
    3.9777    2.2667    0.0000 S   0  0  0  0  0  0  0  0  0  0  0  0
    5.4778    2.2667    0.0000 C   0  0  0  0  0  0  0  0  0  0  0  0
    6.2279    3.5658    0.0000 C   0  0  0  0  0  0  0  0  0  0  0  0
    5.4778    4.8648    0.0000 C   0  0  0  0  0  0  0  0  0  0  0  0
    3.9777    4.8648    0.0000 N   0  0  0  0  0  0  0  0  0  0  0  0
    2.6788    5.6148    0.0000 C   0  0  0  0  0  0  0  0  0  0  0  0
    2.2905    7.0636    0.0000 O   0  0  0  0  0  0  0  0  0  0  0  0
    6.2279    6.1639    0.0000 C   0  0  0  0  0  0  0  0  0  0  0  0
    5.4778    7.4629    0.0000 O   0  0  0  0  0  0  0  0  0  0  0  0
    7.7279    6.1639    0.0000 O   0  0  0  0  0  0  0  0  0  0  0  0
    7.7279    3.5658    0.0000 C   0  0  0  0  0  0  0  0  0  0  0  0
    8.4778    2.2667    0.0000 S   0  0  0  0  0  0  0  0  0  0  0  0
    9.9778    2.2667    0.0000 C   0  0  0  0  0  0  0  0  0  0  0  0
   10.8596    3.4803    0.0000 C   0  0  0  0  0  0  0  0  0  0  0  0
   12.2860    3.0167    0.0000 N   0  0  0  0  0  0  0  0  0  0  0  0
   12.2860    1.5167    0.0000 N   0  0  0  0  0  0  0  0  0  0  0  0
   10.8596    1.0532    0.0000 N   0  0  0  0  0  0  0  0  0  0  0  0
   -3.0905    5.6608    0.0000 C   0  0  0  0  0  0  0  0  0  0  0  0
   -2.7022    7.1095    0.0000 C   0  0  0  0  0  0  0  0  0  0  0  0
   -3.7627    8.1702    0.0000 C   0  0  0  0  0  0  0  0  0  0  0  0
   -5.2118    7.7820    0.0000 C   0  0  0  0  0  0  0  0  0  0  0  0
   -6.2723    8.8426    0.0000 O   0  0  0  0  0  0  0  0  0  0  0  0
   -5.6000    6.3331    0.0000 C   0  0  0  0  0  0  0  0  0  0  0  0
   -4.5392    5.2724    0.0000 C   0  0  0  0  0  0  0  0  0  0  0  0
  1  2  1  0  0  0  0
  2  3  1  0  0  0  0
  2 25  1  0  0  0  0
  3  4  2  0  0  0  0
  3  5  1  0  0  0  0
  5  6  1  0  0  0  0
  7  6  1  0  0  0  0
  6 13  1  0  0  0  0
  8  7  1  0  0  0  0
  7 12  1  0  0  0  0
  9  8  1  0  0  0  0
 10  9  1  0  0  0  0
 11 10  2  0  0  0  0
 10 18  1  0  0  0  0
 12 11  1  0  0  0  0
 11 15  1  0  0  0  0
 13 12  1  0  0  0  0
 13 14  2  0  0  0  0
 15 16  2  0  0  0  0
 15 17  1  0  0  0  0
 18 19  1  0  0  0  0
 19 20  1  0  0  0  0
 21 20  2  0  0  0  0
 20 24  1  0  0  0  0
 22 21  1  0  0  0  0
 23 22  1  0  0  0  0
 24 23  2  0  0  0  0
 26 25  2  0  0  0  0
 25 31  1  0  0  0  0
 27 26  1  0  0  0  0
 28 27  2  0  0  0  0
 28 29  1  0  0  0  0
 30 28  1  0  0  0  0
 31 30  2  0  0  0  0
M  END
> <Inchi_key>
UOCJDOLVGGIYIQ-UHFFFAOYSA-N

> <Source>
Mulliner

> <ID>
HT3848

> <H_MFHB>
0

> <CAS>


> <Cholestasis>


> <Name>


> <Class>
0

$$$$