

  -INDIGO-08031710012D

 29 33  0  0  0  0  0  0  0  0999 V2000
   -0.5135    0.2963    0.0000 O   0  0  0  0  0  0  0  0  0  0  0  0
   -1.2640    1.5949    0.0000 C   0  0  0  0  0  0  0  0  0  0  0  0
    0.0346    2.3456    0.0000 C   0  0  0  0  0  0  0  0  0  0  0  0
    0.0339    3.8456    0.0000 O   0  0  0  0  0  0  0  0  0  0  0  0
    1.3340    1.5961    0.0000 O   0  0  0  0  0  0  0  0  0  0  0  0
    2.6328    2.3468    0.0000 C   0  0  0  0  0  0  0  0  0  0  0  0
    3.8559    2.5565    0.0000 C   0  0  0  0  0  0  0  0  0  0  0  0
    5.4095    1.6604    0.0000 C   0  0  0  0  0  0  0  0  0  0  0  0
    5.5774    0.0436    0.0000 C   0  0  0  0  0  0  0  0  0  0  0  0
    4.9342    1.2123    0.0000 C   0  0  0  0  0  0  0  0  0  0  0  0
    5.0723    2.6455    0.0000 C   0  0  0  0  0  0  0  0  0  0  0  0
    3.6071    3.5215    0.0000 C   0  0  0  0  0  0  0  0  0  0  0  0
    6.3738    2.8337    0.0000 N   0  0  0  0  0  0  0  0  0  0  0  0
    7.7200    2.1721    0.0000 C   0  0  0  0  0  0  0  0  0  0  0  0
    8.7653    3.2479    0.0000 C   0  0  0  0  0  0  0  0  0  0  0  0
    8.0651    4.5745    0.0000 C   0  0  0  0  0  0  0  0  0  0  0  0
    6.5872    4.3185    0.0000 C   0  0  0  0  0  0  0  0  0  0  0  0
   -2.5628    0.8443    0.0000 C   0  0  0  0  0  0  0  0  0  0  0  0
   -3.8620    1.5937    0.0000 C   0  0  0  0  0  0  0  0  0  0  0  0
   -5.1608    0.8431    0.0000 C   0  0  0  0  0  0  0  0  0  0  0  0
   -5.1602   -0.6569    0.0000 C   0  0  0  0  0  0  0  0  0  0  0  0
   -3.8607   -1.4063    0.0000 C   0  0  0  0  0  0  0  0  0  0  0  0
   -2.5619   -0.6557    0.0000 C   0  0  0  0  0  0  0  0  0  0  0  0
   -2.0148    2.8936    0.0000 C   0  0  0  0  0  0  0  0  0  0  0  0
   -3.5148    2.8929    0.0000 C   0  0  0  0  0  0  0  0  0  0  0  0
   -4.2653    4.1916    0.0000 C   0  0  0  0  0  0  0  0  0  0  0  0
   -3.5158    5.4910    0.0000 C   0  0  0  0  0  0  0  0  0  0  0  0
   -2.0158    5.4917    0.0000 C   0  0  0  0  0  0  0  0  0  0  0  0
   -1.2653    4.1930    0.0000 C   0  0  0  0  0  0  0  0  0  0  0  0
  1  2  1  0  0  0  0
  2  3  1  0  0  0  0
  2 18  1  0  0  0  0
  2 24  1  0  0  0  0
  3  4  2  0  0  0  0
  3  5  1  0  0  0  0
  5  6  1  0  0  0  0
  7  6  1  0  0  0  0
  6 12  1  0  0  0  0
  8  7  1  0  0  0  0
  8  9  1  0  0  0  0
 13  8  1  0  0  0  0
  9 10  1  0  0  0  0
 10 11  1  0  0  0  0
 12 11  1  0  0  0  0
 11 13  1  0  0  0  0
 14 13  1  0  0  0  0
 13 17  1  0  0  0  0
 15 14  1  0  0  0  0
 16 15  1  0  0  0  0
 17 16  1  0  0  0  0
 19 18  2  0  0  0  0
 18 23  1  0  0  0  0
 20 19  1  0  0  0  0
 21 20  2  0  0  0  0
 22 21  1  0  0  0  0
 23 22  2  0  0  0  0
 25 24  2  0  0  0  0
 24 29  1  0  0  0  0
 26 25  1  0  0  0  0
 27 26  2  0  0  0  0
 28 27  1  0  0  0  0
 29 28  2  0  0  0  0
M  CHG  1  13   1
M  END
> <Inchi_key>
OYYDSUSKLWTMMQ-UHFFFAOYSA-N

> <Source>
Mulliner

> <ID>
HT2142

> <H_MFHB>
0

> <CAS>


> <Cholestasis>


> <Name>
trospium chloride;trospium

> <Class>
0


$$$$