
  -INDIGO-08031710012D

 28 30  0  0  0  0  0  0  0  0999 V2000
   13.6654    3.6616    0.0000 C   0  0  0  0  0  0  0  0  0  0  0  0
   12.3663    2.9115    0.0000 C   0  0  0  0  0  0  0  0  0  0  0  0
   10.9962    3.5217    0.0000 C   0  0  0  0  0  0  0  0  0  0  0  0
    9.9924    2.4070    0.0000 C   0  0  0  0  0  0  0  0  0  0  0  0
    8.4925    2.4070    0.0000 C   0  0  0  0  0  0  0  0  0  0  0  0
    7.7424    3.7062    0.0000 O   0  0  0  0  0  0  0  0  0  0  0  0
    6.2425    3.7062    0.0000 C   0  0  0  0  0  0  0  0  0  0  0  0
    5.4924    5.0051    0.0000 C   0  0  0  0  0  0  0  0  0  0  0  0
    6.2425    6.3041    0.0000 C   0  0  0  0  0  0  0  0  0  0  0  0
    5.4924    7.6032    0.0000 N   0  0  0  0  0  0  0  0  0  0  0  0
    6.2425    8.9022    0.0000 C   0  0  0  0  0  0  0  0  0  0  0  0
    6.9923   10.2013    0.0000 C   0  0  0  0  0  0  0  0  0  0  0  0
    7.5414    8.1522    0.0000 C   0  0  0  0  0  0  0  0  0  0  0  0
    4.9434    9.6521    0.0000 C   0  0  0  0  0  0  0  0  0  0  0  0
    3.9925    5.0051    0.0000 O   0  0  0  0  0  0  0  0  0  0  0  0
    3.2424    3.7062    0.0000 C   0  0  0  0  0  0  0  0  0  0  0  0
    3.9925    2.4070    0.0000 O   0  0  0  0  0  0  0  0  0  0  0  0
    1.7425    3.7062    0.0000 C   0  0  0  0  0  0  0  0  0  0  0  0
    0.9924    2.4070    0.0000 C   0  0  0  0  0  0  0  0  0  0  0  0
   -0.5075    2.4070    0.0000 C   0  0  0  0  0  0  0  0  0  0  0  0
   -1.2576    3.7062    0.0000 C   0  0  0  0  0  0  0  0  0  0  0  0
   -0.5075    5.0051    0.0000 C   0  0  0  0  0  0  0  0  0  0  0  0
    0.9924    5.0051    0.0000 C   0  0  0  0  0  0  0  0  0  0  0  0
    7.7424    1.1081    0.0000 C   0  0  0  0  0  0  0  0  0  0  0  0
    8.4925   -0.1910    0.0000 C   0  0  0  0  0  0  0  0  0  0  0  0
    9.9924   -0.1910    0.0000 C   0  0  0  0  0  0  0  0  0  0  0  0
   10.7425    1.1081    0.0000 C   0  0  0  0  0  0  0  0  0  0  0  0
   12.2096    1.4200    0.0000 N   0  0  0  0  0  0  0  0  0  0  0  0
  1  2  1  0  0  0  0
  3  2  2  0  0  0  0
  2 28  1  0  0  0  0
  4  3  1  0  0  0  0
  5  4  2  0  0  0  0
  4 27  1  0  0  0  0
  5  6  1  0  0  0  0
 24  5  1  0  0  0  0
  6  7  1  0  0  0  0
  7  8  1  0  0  0  0
  8  9  1  0  0  0  0
  8 15  1  0  0  0  0
  9 10  1  0  0  0  0
 10 11  1  0  0  0  0
 11 12  1  0  0  0  0
 11 13  1  0  0  0  0
 11 14  1  0  0  0  0
 15 16  1  0  0  0  0
 16 17  2  0  0  0  0
 16 18  1  0  0  0  0
 19 18  2  0  0  0  0
 18 23  1  0  0  0  0
 20 19  1  0  0  0  0
 21 20  2  0  0  0  0
 22 21  1  0  0  0  0
 23 22  2  0  0  0  0
 25 24  2  0  0  0  0
 26 25  1  0  0  0  0
 27 26  2  0  0  0  0
 28 27  1  0  0  0  0
M  END
> <Inchi_key>
UUOJIACWOAYWEZ-UHFFFAOYSA-N

> <Source>
Mulliner

> <ID>
HT0298

> <H_MFHB>
0

> <CAS>


> <Cholestasis>


> <Name>
bopindolol

> <Class>
0

$$$$