
  -INDIGO-08031710012D

 13 13  0  0  0  0  0  0  0  0999 V2000
    9.7961   -2.6249    0.0000 C   0  0  0  0  0  0  0  0  0  0  0  0
    8.4969   -1.8749    0.0000 N   0  0  0  0  0  0  0  0  0  0  0  0
    7.1981   -2.6249    0.0000 C   0  0  0  0  0  0  0  0  0  0  0  0
    5.8990   -1.8749    0.0000 C   0  0  0  0  0  0  0  0  0  0  0  0
    5.8990   -0.3749    0.0000 O   0  0  0  0  0  0  0  0  0  0  0  0
    4.5999   -2.6249    0.0000 C   0  0  0  0  0  0  0  0  0  0  0  0
    4.5999   -4.1249    0.0000 C   0  0  0  0  0  0  0  0  0  0  0  0
    3.3008   -4.8749    0.0000 C   0  0  0  0  0  0  0  0  0  0  0  0
    2.0018   -4.1249    0.0000 C   0  0  0  0  0  0  0  0  0  0  0  0
    0.7028   -4.8749    0.0000 O   0  0  0  0  0  0  0  0  0  0  0  0
    2.0018   -2.6249    0.0000 C   0  0  0  0  0  0  0  0  0  0  0  0
    0.7028   -1.8749    0.0000 O   0  0  0  0  0  0  0  0  0  0  0  0
    3.3008   -1.8749    0.0000 C   0  0  0  0  0  0  0  0  0  0  0  0
  1  2  1  0  0  0  0
  2  3  1  0  0  0  0
  3  4  1  0  0  0  0
  4  5  1  0  0  0  0
  4  6  1  0  0  0  0
  7  6  2  0  0  0  0
  6 13  1  0  0  0  0
  8  7  1  0  0  0  0
  9  8  2  0  0  0  0
  9 10  1  0  0  0  0
 11  9  1  0  0  0  0
 11 12  1  0  0  0  0
 13 11  2  0  0  0  0
M  END
> <Inchi_key>
UCTWMZQNUQWSLP-UHFFFAOYSA-N

> <Source>
Mulliner , Kotsampasakou

> <ID>
EK0184;HT0769

> <H_MFHB>
0

> <CAS>
55-31-2

> <Cholestasis>
0

> <Name>
epinephrine

> <Class>
0

$$$$