

  -INDIGO-08031710012D

 15 17  0  0  0  0  0  0  0  0999 V2000
   -3.7640    3.7640    0.0000 C   0  0  0  0  0  0  0  0  0  0  0  0
   -2.4650    3.0140    0.0000 C   0  0  0  0  0  0  0  0  0  0  0  0
   -2.4650    1.5140    0.0000 C   0  0  0  0  0  0  0  0  0  0  0  0
   -1.1659    0.7640    0.0000 C   0  0  0  0  0  0  0  0  0  0  0  0
    0.2044    1.3741    0.0000 N   0  0  0  0  0  0  0  0  0  0  0  0
    1.2081    0.2594    0.0000 C   0  0  0  0  0  0  0  0  0  0  0  0
    0.4581   -1.0396    0.0000 C   0  0  0  0  0  0  0  0  0  0  0  0
   -1.0091   -0.7278    0.0000 N   0  0  0  0  0  0  0  0  0  0  0  0
   -3.7640    0.7640    0.0000 C   0  0  0  0  0  0  0  0  0  0  0  0
   -3.7640   -0.7360    0.0000 C   0  0  0  0  0  0  0  0  0  0  0  0
   -5.0631   -1.4860    0.0000 C   0  0  0  0  0  0  0  0  0  0  0  0
   -6.3621   -0.7360    0.0000 C   0  0  0  0  0  0  0  0  0  0  0  0
   -6.3621    0.7640    0.0000 C   0  0  0  0  0  0  0  0  0  0  0  0
   -5.0631    1.5140    0.0000 C   0  0  0  0  0  0  0  0  0  0  0  0
   -5.0631    3.0140    0.0000 C   0  0  0  0  0  0  0  0  0  0  0  0
  2  1  1  0  0  0  0
  1 15  1  0  0  0  0
  3  2  1  0  0  0  0
  3  4  1  0  0  0  0
  9  3  1  0  0  0  0
  5  4  2  0  0  0  0
  4  8  1  0  0  0  0
  6  5  1  0  0  0  0
  7  6  1  0  0  0  0
  8  7  1  0  0  0  0
 10  9  1  0  0  0  0
  9 14  2  0  0  0  0
 11 10  2  0  0  0  0
 12 11  1  0  0  0  0
 13 12  2  0  0  0  0
 14 13  1  0  0  0  0
 15 14  1  0  0  0  0
M  END
> <Inchi_key>
BYJAVTDNIXVSPW-UHFFFAOYSA-N

> <Source>
Mulliner , Kotsampasakou

> <ID>
EK0520;HT2029

> <H_MFHB>
0

> <CAS>


> <Cholestasis>
0

> <Name>
tetrahydrozoline hydrochloride;tetrahydrozoline

> <Class>
0


$$$$