

  -INDIGO-08031710012D

 22 24  0  0  0  0  0  0  0  0999 V2000
    3.2046    3.1885    0.0000 C   0  0  0  0  0  0  0  0  0  0  0  0
    3.9546    1.8895    0.0000 C   0  0  0  0  0  0  0  0  0  0  0  0
    3.2046    0.5905    0.0000 N   0  0  0  0  0  0  0  0  0  0  0  0
    1.7045    0.5905    0.0000 C   0  0  0  0  0  0  0  0  0  0  0  0
    0.9545   -0.7086    0.0000 C   0  0  0  0  0  0  0  0  0  0  0  0
   -0.5455   -0.7086    0.0000 C   0  0  0  0  0  0  0  0  0  0  0  0
   -1.2955    0.5905    0.0000 O   0  0  0  0  0  0  0  0  0  0  0  0
   -1.2955   -2.0076    0.0000 O   0  0  0  0  0  0  0  0  0  0  0  0
    1.7045   -2.0076    0.0000 C   0  0  0  0  0  0  0  0  0  0  0  0
    0.9545   -3.3066    0.0000 O   0  0  0  0  0  0  0  0  0  0  0  0
    3.2046   -2.0076    0.0000 C   0  0  0  0  0  0  0  0  0  0  0  0
    3.9546   -3.3066    0.0000 C   0  0  0  0  0  0  0  0  0  0  0  0
    5.4544   -3.3066    0.0000 C   0  0  0  0  0  0  0  0  0  0  0  0
    6.2044   -2.0076    0.0000 C   0  0  0  0  0  0  0  0  0  0  0  0
    5.4544   -0.7086    0.0000 C   0  0  0  0  0  0  0  0  0  0  0  0
    3.9546   -0.7086    0.0000 C   0  0  0  0  0  0  0  0  0  0  0  0
    7.7045   -2.0076    0.0000 C   0  0  0  0  0  0  0  0  0  0  0  0
    8.4545   -3.3066    0.0000 C   0  0  0  0  0  0  0  0  0  0  0  0
    9.9545   -3.3066    0.0000 C   0  0  0  0  0  0  0  0  0  0  0  0
   10.7045   -2.0076    0.0000 N   0  0  0  0  0  0  0  0  0  0  0  0
    9.9545   -0.7086    0.0000 C   0  0  0  0  0  0  0  0  0  0  0  0
    8.4545   -0.7086    0.0000 C   0  0  0  0  0  0  0  0  0  0  0  0
  1  2  1  0  0  0  0
  2  3  1  0  0  0  0
  4  3  1  0  0  0  0
  3 16  1  0  0  0  0
  5  4  2  0  0  0  0
  5  6  1  0  0  0  0
  9  5  1  0  0  0  0
  6  7  2  0  0  0  0
  6  8  1  0  0  0  0
  9 10  2  0  0  0  0
 11  9  1  0  0  0  0
 12 11  1  0  0  0  0
 11 16  2  0  0  0  0
 13 12  2  0  0  0  0
 14 13  1  0  0  0  0
 15 14  2  0  0  0  0
 14 17  1  0  0  0  0
 16 15  1  0  0  0  0
 18 17  2  0  0  0  0
 17 22  1  0  0  0  0
 19 18  1  0  0  0  0
 20 19  2  0  0  0  0
 21 20  1  0  0  0  0
 22 21  2  0  0  0  0
M  END
> <Inchi_key>
XBPZXDSZHPDXQU-UHFFFAOYSA-N

> <Source>
Mulliner

> <ID>
HT1849

> <H_MFHB>
0

> <CAS>


> <Cholestasis>


> <Name>
rosoxacin

> <Class>
0


$$$$