
  -INDIGO-08031710012D

  7  6  0  0  0  0  0  0  0  0999 V2000
    5.3551   -0.7920    0.0000 C   0  0  0  0  0  0  0  0  0  0  0  0
    4.0560   -1.5420    0.0000 O   0  0  0  0  0  0  0  0  0  0  0  0
    2.7570   -0.7920    0.0000 C   0  0  0  0  0  0  0  0  0  0  0  0
    2.7570    0.7080    0.0000 O   0  0  0  0  0  0  0  0  0  0  0  0
    1.4580   -1.5420    0.0000 C   0  0  0  0  0  0  0  0  0  0  0  0
    1.4580   -3.0420    0.0000 C   0  0  0  0  0  0  0  0  0  0  0  0
    0.1589   -0.7920    0.0000 C   0  0  0  0  0  0  0  0  0  0  0  0
  1  2  1  0  0  0  0
  2  3  1  0  0  0  0
  3  4  2  0  0  0  0
  3  5  1  0  0  0  0
  5  6  2  0  0  0  0
  5  7  1  0  0  0  0
M  END
> <Inchi_key>
VVQNEPGJFQJSBK-UHFFFAOYSA-N

> <Source>
Mulliner

> <ID>
HT2407

> <H_MFHB>
0

> <CAS>
80-62-6

> <Cholestasis>


> <Name>


> <Class>
0

$$$$