
  -INDIGO-08031710012D

 25 31  0  0  0  0  0  0  0  0999 V2000
    7.1952    1.8706    0.0000 O   0  0  0  0  0  0  0  0  0  0  0  0
    5.8852    1.1400    0.0000 C   0  0  0  0  0  0  0  0  0  0  0  0
    4.6345    1.8842    0.0000 C   0  0  0  0  0  0  0  0  0  0  0  0
    3.3443    1.1648    0.0000 C   0  0  0  0  0  0  0  0  0  0  0  0
    1.7628    1.5112    0.0000 O   0  0  0  0  0  0  0  0  0  0  0  0
    0.3073    0.6625    0.0000 C   0  0  0  0  0  0  0  0  0  0  0  0
   -0.1123   -0.7586    0.0000 C   0  0  0  0  0  0  0  0  0  0  0  0
    0.6122   -1.9717    0.0000 C   0  0  0  0  0  0  0  0  0  0  0  0
    0.7042   -3.5577    0.0000 C   0  0  0  0  0  0  0  0  0  0  0  0
    2.2483   -4.0819    0.0000 N   0  0  0  0  0  0  0  0  0  0  0  0
    3.5816   -4.9332    0.0000 C   0  0  0  0  0  0  0  0  0  0  0  0
    4.8151   -4.1288    0.0000 C   0  0  0  0  0  0  0  0  0  0  0  0
    4.5950   -2.5709    0.0000 C   0  0  0  0  0  0  0  0  0  0  0  0
    3.2652   -3.1422    0.0000 C   0  0  0  0  0  0  0  0  0  0  0  0
    2.1665   -2.4962    0.0000 C   0  0  0  0  0  0  0  0  0  0  0  0
    1.9799   -1.1169    0.0000 C   0  0  0  0  0  0  0  0  0  0  0  0
    3.3378   -0.2668    0.0000 C   0  0  0  0  0  0  0  0  0  0  0  0
    4.6678   -0.9966    0.0000 C   0  0  0  0  0  0  0  0  0  0  0  0
    5.8602   -0.3587    0.0000 N   0  0  0  0  0  0  0  0  0  0  0  0
    6.8043   -1.5309    0.0000 C   0  0  0  0  0  0  0  0  0  0  0  0
    8.2977   -1.5168    0.0000 C   0  0  0  0  0  0  0  0  0  0  0  0
    9.0488   -2.8152    0.0000 C   0  0  0  0  0  0  0  0  0  0  0  0
    8.2994   -4.1163    0.0000 C   0  0  0  0  0  0  0  0  0  0  0  0
    6.7994   -4.1175    0.0000 C   0  0  0  0  0  0  0  0  0  0  0  0
    6.0621   -2.7733    0.0000 C   0  0  0  0  0  0  0  0  0  0  0  0
  1  2  2  0  0  0  0
  3  2  1  0  0  0  0
  2 19  1  0  0  0  0
  4  3  1  0  0  0  0
  5  4  1  0  0  0  0
  4 17  1  0  0  0  0
  6  5  1  0  0  0  0
  7  6  1  0  0  0  0
  8  7  2  0  0  0  0
  9  8  1  0  0  0  0
  8 16  1  0  0  0  0
 10  9  1  0  0  0  0
 10 11  1  0  0  0  0
 14 10  1  0  0  0  0
 11 12  1  0  0  0  0
 12 13  1  0  0  0  0
 14 13  1  0  0  0  0
 13 18  1  0  0  0  0
 25 13  1  0  0  0  0
 15 14  1  0  0  0  0
 16 15  1  0  0  0  0
 17 16  1  0  0  0  0
 18 17  1  0  0  0  0
 18 19  1  0  0  0  0
 19 20  1  0  0  0  0
 21 20  2  0  0  0  0
 20 25  1  0  0  0  0
 22 21  1  0  0  0  0
 23 22  2  0  0  0  0
 24 23  1  0  0  0  0
 25 24  2  0  0  0  0
M  END
> <Inchi_key>
QMGVPVSNSZLJIA-UHFFFAOYSA-N

> <Source>
Mulliner

> <ID>
HT3528

> <H_MFHB>
0

> <CAS>


> <Cholestasis>


> <Name>


> <Class>
0

$$$$