

  -INDIGO-08031709442D

 25 28  0  0  0  0  0  0  0  0999 V2000
   13.6700    0.0331    0.0000 O   0  0  0  0  0  0  0  0  0  0  0  0
   12.1700    0.0259    0.0000 C   0  0  0  0  0  0  0  0  0  0  0  0
   11.4262   -1.2768    0.0000 C   0  0  0  0  0  0  0  0  0  0  0  0
    9.9264   -1.2841    0.0000 C   0  0  0  0  0  0  0  0  0  0  0  0
    9.1700    0.0113    0.0000 C   0  0  0  0  0  0  0  0  0  0  0  0
    9.9137    1.3140    0.0000 C   0  0  0  0  0  0  0  0  0  0  0  0
   11.4138    1.3212    0.0000 C   0  0  0  0  0  0  0  0  0  0  0  0
    9.1573    2.6094    0.0000 C   0  0  0  0  0  0  0  0  0  0  0  0
    7.6575    2.6021    0.0000 C   0  0  0  0  0  0  0  0  0  0  0  0
    6.9137    1.2994    0.0000 C   0  0  0  0  0  0  0  0  0  0  0  0
    5.4137    1.2922    0.0000 C   0  0  0  0  0  0  0  0  0  0  0  0
    4.4046    2.4020    0.0000 C   0  0  0  0  0  0  0  0  0  0  0  0
    3.0373    1.7853    0.0000 C   0  0  0  0  0  0  0  0  0  0  0  0
    3.2014    0.2943    0.0000 C   0  0  0  0  0  0  0  0  0  0  0  0
    2.8202   -1.1565    0.0000 O   0  0  0  0  0  0  0  0  0  0  0  0
    1.7415   -0.0502    0.0000 C   0  0  0  0  0  0  0  0  0  0  0  0
    0.7132    1.0418    0.0000 O   0  0  0  0  0  0  0  0  0  0  0  0
    1.3099   -1.4868    0.0000 C   0  0  0  0  0  0  0  0  0  0  0  0
    4.6701   -0.0105    0.0000 C   0  0  0  0  0  0  0  0  0  0  0  0
    5.4264   -1.3059    0.0000 C   0  0  0  0  0  0  0  0  0  0  0  0
    6.9264   -1.2986    0.0000 C   0  0  0  0  0  0  0  0  0  0  0  0
    7.6700    0.0040    0.0000 C   0  0  0  0  0  0  0  0  0  0  0  0
    3.7943   -1.2283    0.0000 C   0  0  0  0  0  0  0  0  0  0  0  0
    9.9011    3.9120    0.0000 C   0  0  0  0  0  0  0  0  0  0  0  0
    8.4036   -1.2782    0.0000 C   0  0  0  0  0  0  0  0  0  0  0  0
  1  2  2  0  0  0  0
  3  2  1  0  0  0  0
  2  7  1  0  0  0  0
  4  3  1  0  0  0  0
  5  4  1  0  0  0  0
  5  6  1  0  0  0  0
 22  5  1  0  0  0  0
  5 25  1  0  0  0  0
  7  6  2  0  0  0  0
  6  8  1  0  0  0  0
  8  9  2  0  0  0  0
  8 24  1  0  0  0  0
  9 10  1  0  0  0  0
 11 10  1  0  0  0  0
 10 22  1  0  0  0  0
 12 11  1  0  0  0  0
 11 19  1  0  0  0  0
 13 12  1  0  0  0  0
 14 13  1  0  0  0  0
 14 15  1  0  0  0  0
 14 16  1  0  0  0  0
 19 14  1  0  0  0  0
 16 17  2  0  0  0  0
 16 18  1  0  0  0  0
 20 19  1  0  0  0  0
 19 23  1  0  0  0  0
 21 20  1  0  0  0  0
 22 21  1  0  0  0  0
M  END
> <Inchi_key>
VXIMPSPISRVBPZ-UHFFFAOYSA-N

> <Source>
Kotsampasakou

> <ID>
EK0318

> <H_MFHB>


> <CAS>


> <Cholestasis>
0

> <Name>
megestrol

> <Class>
0


$$$$