

  -INDIGO-08031710012D

 29 32  0  0  0  0  0  0  0  0999 V2000
   22.1343    3.5100    0.0000 C   0  0  0  0  0  0  0  0  0  0  0  0
   20.7078    3.0459    0.0000 C   0  0  0  0  0  0  0  0  0  0  0  0
   19.5929    4.0492    0.0000 C   0  0  0  0  0  0  0  0  0  0  0  0
   18.1664    3.5852    0.0000 C   0  0  0  0  0  0  0  0  0  0  0  0
   17.0512    4.5884    0.0000 C   0  0  0  0  0  0  0  0  0  0  0  0
   15.6250    4.1244    0.0000 C   0  0  0  0  0  0  0  0  0  0  0  0
   14.5098    5.1276    0.0000 C   0  0  0  0  0  0  0  0  0  0  0  0
   14.8212    6.5950    0.0000 O   0  0  0  0  0  0  0  0  0  0  0  0
   13.0833    4.6636    0.0000 O   0  0  0  0  0  0  0  0  0  0  0  0
   11.9684    5.6669    0.0000 C   0  0  0  0  0  0  0  0  0  0  0  0
   12.1246    7.1587    0.0000 C   0  0  0  0  0  0  0  0  0  0  0  0
   10.7541    7.7683    0.0000 C   0  0  0  0  0  0  0  0  0  0  0  0
    9.7507    6.6532    0.0000 C   0  0  0  0  0  0  0  0  0  0  0  0
    8.2508    6.6526    0.0000 C   0  0  0  0  0  0  0  0  0  0  0  0
    7.5002    7.9514    0.0000 C   0  0  0  0  0  0  0  0  0  0  0  0
    6.0003    7.9508    0.0000 C   0  0  0  0  0  0  0  0  0  0  0  0
    5.2506    6.6515    0.0000 C   0  0  0  0  0  0  0  0  0  0  0  0
    3.7507    6.6509    0.0000 C   0  0  0  0  0  0  0  0  0  0  0  0
    3.0011    5.3516    0.0000 C   0  0  0  0  0  0  0  0  0  0  0  0
    1.5012    5.3510    0.0000 O   0  0  0  0  0  0  0  0  0  0  0  0
    3.7517    4.0529    0.0000 C   0  0  0  0  0  0  0  0  0  0  0  0
    5.2516    4.0534    0.0000 C   0  0  0  0  0  0  0  0  0  0  0  0
    6.0012    5.3527    0.0000 C   0  0  0  0  0  0  0  0  0  0  0  0
    6.7518    4.0540    0.0000 C   0  0  0  0  0  0  0  0  0  0  0  0
    7.5011    5.3533    0.0000 C   0  0  0  0  0  0  0  0  0  0  0  0
    8.2517    4.0546    0.0000 C   0  0  0  0  0  0  0  0  0  0  0  0
    9.7516    4.0551    0.0000 C   0  0  0  0  0  0  0  0  0  0  0  0
   10.5012    5.3544    0.0000 C   0  0  0  0  0  0  0  0  0  0  0  0
   11.3620    4.1260    0.0000 C   0  0  0  0  0  0  0  0  0  0  0  0
  1  2  1  0  0  0  0
  2  3  1  0  0  0  0
  3  4  1  0  0  0  0
  4  5  1  0  0  0  0
  5  6  1  0  0  0  0
  6  7  1  0  0  0  0
  7  8  2  0  0  0  0
  7  9  1  0  0  0  0
  9 10  1  0  0  0  0
 11 10  1  0  0  0  0
 10 28  1  0  0  0  0
 12 11  1  0  0  0  0
 13 12  1  0  0  0  0
 14 13  1  0  0  0  0
 13 28  1  0  0  0  0
 15 14  1  0  0  0  0
 14 25  1  0  0  0  0
 16 15  1  0  0  0  0
 17 16  1  0  0  0  0
 18 17  2  0  0  0  0
 17 23  1  0  0  0  0
 19 18  1  0  0  0  0
 19 20  2  0  0  0  0
 21 19  1  0  0  0  0
 22 21  1  0  0  0  0
 23 22  1  0  0  0  0
 23 24  1  0  0  0  0
 25 23  1  0  0  0  0
 26 25  1  0  0  0  0
 27 26  1  0  0  0  0
 28 27  1  0  0  0  0
 28 29  1  0  0  0  0
M  END
> <Inchi_key>
VOCBWIIFXDYGNZ-UHFFFAOYSA-N

> <Source>
Mulliner , Kotsampasakou

> <ID>
EK0515;HT2019

> <H_MFHB>
0

> <CAS>


> <Cholestasis>
0

> <Name>
testosterone enanthate

> <Class>
0


$$$$