
  -INDIGO-08031710012D

 15 16  0  0  0  0  0  0  0  0999 V2000
    0.0005   -0.0739    0.0000 N   0  0  0  0  0  0  0  0  0  0  0  0
    1.5003   -0.0529    0.0000 C   0  0  0  0  0  0  0  0  0  0  0  0
    2.2321    1.2565    0.0000 N   0  0  0  0  0  0  0  0  0  0  0  0
    3.7319    1.2774    0.0000 C   0  0  0  0  0  0  0  0  0  0  0  0
    4.4636    2.5868    0.0000 O   0  0  0  0  0  0  0  0  0  0  0  0
    4.5001   -0.0110    0.0000 N   0  0  0  0  0  0  0  0  0  0  0  0
    3.7682   -1.3204    0.0000 C   0  0  0  0  0  0  0  0  0  0  0  0
    2.2684   -1.3413    0.0000 C   0  0  0  0  0  0  0  0  0  0  0  0
    5.9999    0.0100    0.0000 C   0  0  0  0  0  0  0  0  0  0  0  0
    6.8645    1.2357    0.0000 C   0  0  0  0  0  0  0  0  0  0  0  0
    8.2974    0.7922    0.0000 C   0  0  0  0  0  0  0  0  0  0  0  0
    8.3184   -0.7077    0.0000 C   0  0  0  0  0  0  0  0  0  0  0  0
    9.5441   -1.5723    0.0000 C   0  0  0  0  0  0  0  0  0  0  0  0
   10.9058   -0.9431    0.0000 O   0  0  0  0  0  0  0  0  0  0  0  0
    6.8985   -1.1911    0.0000 O   0  0  0  0  0  0  0  0  0  0  0  0
  1  2  1  0  0  0  0
  3  2  2  0  0  0  0
  2  8  1  0  0  0  0
  4  3  1  0  0  0  0
  4  5  2  0  0  0  0
  6  4  1  0  0  0  0
  7  6  1  0  0  0  0
  6  9  1  0  0  0  0
  8  7  2  0  0  0  0
 10  9  1  0  0  0  0
  9 15  1  0  0  0  0
 11 10  1  0  0  0  0
 12 11  1  0  0  0  0
 12 13  1  0  0  0  0
 15 12  1  0  0  0  0
 13 14  1  0  0  0  0
M  END
> <Inchi_key>
WREGKURFCTUGRC-UHFFFAOYSA-N

> <Source>
Mulliner

> <ID>
HT2207

> <H_MFHB>
0

> <CAS>


> <Cholestasis>


> <Name>
zalcitabine

> <Class>
0

$$$$