

  -INDIGO-08031710012D

 38 42  0  0  0  0  0  0  0  0999 V2000
    6.4402    5.9829    0.0000 C   0  0  0  0  0  0  0  0  0  0  0  0
    5.1410    5.2329    0.0000 N   0  0  0  0  0  0  0  0  0  0  0  0
    3.8421    5.9829    0.0000 C   0  0  0  0  0  0  0  0  0  0  0  0
    5.1410    3.7329    0.0000 C   0  0  0  0  0  0  0  0  0  0  0  0
    3.8421    2.9829    0.0000 C   0  0  0  0  0  0  0  0  0  0  0  0
    2.5429    3.7329    0.0000 C   0  0  0  0  0  0  0  0  0  0  0  0
    1.2440    2.9829    0.0000 C   0  0  0  0  0  0  0  0  0  0  0  0
    1.2440    1.4829    0.0000 C   0  0  0  0  0  0  0  0  0  0  0  0
    2.5429    0.7329    0.0000 C   0  0  0  0  0  0  0  0  0  0  0  0
    2.5429   -0.7671    0.0000 O   0  0  0  0  0  0  0  0  0  0  0  0
    3.8421    1.4829    0.0000 C   0  0  0  0  0  0  0  0  0  0  0  0
    3.8421   -0.0171    0.0000 O   0  0  0  0  0  0  0  0  0  0  0  0
    5.1410    0.7329    0.0000 C   0  0  0  0  0  0  0  0  0  0  0  0
    6.4402    1.4829    0.0000 C   0  0  0  0  0  0  0  0  0  0  0  0
    7.7391    0.7329    0.0000 C   0  0  0  0  0  0  0  0  0  0  0  0
    7.7391   -0.7671    0.0000 O   0  0  0  0  0  0  0  0  0  0  0  0
    9.0383    1.4829    0.0000 N   0  0  0  0  0  0  0  0  0  0  0  0
   10.3372    0.7329    0.0000 C   0  0  0  0  0  0  0  0  0  0  0  0
   11.6364    1.4829    0.0000 N   0  0  0  0  0  0  0  0  0  0  0  0
   11.7929    2.9747    0.0000 C   0  0  0  0  0  0  0  0  0  0  0  0
   13.2604    3.2866    0.0000 C   0  0  0  0  0  0  0  0  0  0  0  0
   14.0103    1.9875    0.0000 C   0  0  0  0  0  0  0  0  0  0  0  0
   13.0066    0.8728    0.0000 C   0  0  0  0  0  0  0  0  0  0  0  0
    6.4402    2.9829    0.0000 C   0  0  0  0  0  0  0  0  0  0  0  0
    7.7391    3.7329    0.0000 O   0  0  0  0  0  0  0  0  0  0  0  0
    5.1410   -0.7671    0.0000 O   0  0  0  0  0  0  0  0  0  0  0  0
   -0.0552    0.7329    0.0000 C   0  0  0  0  0  0  0  0  0  0  0  0
   -0.0552   -0.7671    0.0000 O   0  0  0  0  0  0  0  0  0  0  0  0
   -1.3541    1.4829    0.0000 C   0  0  0  0  0  0  0  0  0  0  0  0
   -2.6533    0.7329    0.0000 C   0  0  0  0  0  0  0  0  0  0  0  0
   -2.6533   -0.7671    0.0000 O   0  0  0  0  0  0  0  0  0  0  0  0
   -3.9522    1.4829    0.0000 C   0  0  0  0  0  0  0  0  0  0  0  0
   -3.9522    2.9829    0.0000 C   0  0  0  0  0  0  0  0  0  0  0  0
   -2.6533    3.7329    0.0000 C   0  0  0  0  0  0  0  0  0  0  0  0
   -1.3541    2.9829    0.0000 C   0  0  0  0  0  0  0  0  0  0  0  0
   -0.0552    3.7329    0.0000 C   0  0  0  0  0  0  0  0  0  0  0  0
   -0.8051    5.0319    0.0000 C   0  0  0  0  0  0  0  0  0  0  0  0
    0.6950    5.0319    0.0000 O   0  0  0  0  0  0  0  0  0  0  0  0
  1  2  1  0  0  0  0
  2  3  1  0  0  0  0
  2  4  1  0  0  0  0
  5  4  1  0  0  0  0
  4 24  1  0  0  0  0
  6  5  1  0  0  0  0
  5 11  1  0  0  0  0
  7  6  1  0  0  0  0
  7  8  1  0  0  0  0
 36  7  1  0  0  0  0
  9  8  2  0  0  0  0
  8 27  1  0  0  0  0
  9 10  1  0  0  0  0
 11  9  1  0  0  0  0
 11 12  1  0  0  0  0
 13 11  1  0  0  0  0
 14 13  2  0  0  0  0
 13 26  1  0  0  0  0
 14 15  1  0  0  0  0
 24 14  1  0  0  0  0
 15 16  2  0  0  0  0
 15 17  1  0  0  0  0
 17 18  1  0  0  0  0
 18 19  1  0  0  0  0
 20 19  1  0  0  0  0
 19 23  1  0  0  0  0
 21 20  1  0  0  0  0
 22 21  1  0  0  0  0
 23 22  1  0  0  0  0
 24 25  2  0  0  0  0
 27 28  2  0  0  0  0
 27 29  1  0  0  0  0
 30 29  2  0  0  0  0
 29 35  1  0  0  0  0
 30 31  1  0  0  0  0
 32 30  1  0  0  0  0
 33 32  2  0  0  0  0
 34 33  1  0  0  0  0
 35 34  2  0  0  0  0
 35 36  1  0  0  0  0
 36 37  1  0  0  0  0
 36 38  1  0  0  0  0
M  END
> <Inchi_key>
YEHCEZXUSLIKDU-UHFFFAOYSA-N

> <Source>
Mulliner

> <ID>
HT1841

> <H_MFHB>
0

> <CAS>


> <Cholestasis>


> <Name>
rolitetracycline

> <Class>
0


$$$$