
  -INDIGO-08031710012D

 34 37  0  0  0  0  0  0  0  0999 V2000
   21.2084   -5.6923    0.0000 C   0  0  0  0  0  0  0  0  0  0  0  0
   19.9101   -4.9411    0.0000 C   0  0  0  0  0  0  0  0  0  0  0  0
   18.6102   -5.6901    0.0000 O   0  0  0  0  0  0  0  0  0  0  0  0
   17.3119   -4.9390    0.0000 C   0  0  0  0  0  0  0  0  0  0  0  0
   17.3133   -3.4390    0.0000 O   0  0  0  0  0  0  0  0  0  0  0  0
   16.0122   -5.6878    0.0000 C   0  0  0  0  0  0  0  0  0  0  0  0
   14.7137   -4.9369    0.0000 C   0  0  0  0  0  0  0  0  0  0  0  0
   14.7151   -3.4367    0.0000 O   0  0  0  0  0  0  0  0  0  0  0  0
   13.4143   -5.6858    0.0000 C   0  0  0  0  0  0  0  0  0  0  0  0
   12.1158   -4.9347    0.0000 C   0  0  0  0  0  0  0  0  0  0  0  0
   12.1171   -3.4348    0.0000 O   0  0  0  0  0  0  0  0  0  0  0  0
   10.8161   -5.6835    0.0000 C   0  0  0  0  0  0  0  0  0  0  0  0
    9.5178   -4.9326    0.0000 C   0  0  0  0  0  0  0  0  0  0  0  0
    8.2179   -5.6814    0.0000 C   0  0  0  0  0  0  0  0  0  0  0  0
    6.9196   -4.9303    0.0000 C   0  0  0  0  0  0  0  0  0  0  0  0
    6.9210   -3.4303    0.0000 C   0  0  0  0  0  0  0  0  0  0  0  0
    5.6224   -2.6793    0.0000 C   0  0  0  0  0  0  0  0  0  0  0  0
    5.6238   -1.1792    0.0000 C   0  0  0  0  0  0  0  0  0  0  0  0
    6.9235   -0.4303    0.0000 C   0  0  0  0  0  0  0  0  0  0  0  0
    6.9246    1.0697    0.0000 F   0  0  0  0  0  0  0  0  0  0  0  0
    8.2218   -1.1814    0.0000 C   0  0  0  0  0  0  0  0  0  0  0  0
    8.2204   -2.6813    0.0000 C   0  0  0  0  0  0  0  0  0  0  0  0
    5.6199   -5.6793    0.0000 C   0  0  0  0  0  0  0  0  0  0  0  0
    4.3214   -4.9281    0.0000 C   0  0  0  0  0  0  0  0  0  0  0  0
    3.0220   -5.6771    0.0000 C   0  0  0  0  0  0  0  0  0  0  0  0
    3.0206   -7.1771    0.0000 C   0  0  0  0  0  0  0  0  0  0  0  0
    4.3189   -7.9282    0.0000 C   0  0  0  0  0  0  0  0  0  0  0  0
    5.6188   -7.1794    0.0000 C   0  0  0  0  0  0  0  0  0  0  0  0
    6.9171   -7.9303    0.0000 O   0  0  0  0  0  0  0  0  0  0  0  0
    8.2168   -7.1814    0.0000 C   0  0  0  0  0  0  0  0  0  0  0  0
    8.3983   -8.6704    0.0000 C   0  0  0  0  0  0  0  0  0  0  0  0
    9.8705   -8.9578    0.0000 C   0  0  0  0  0  0  0  0  0  0  0  0
   10.5988   -7.6465    0.0000 C   0  0  0  0  0  0  0  0  0  0  0  0
    9.5769   -6.5487    0.0000 C   0  0  0  0  0  0  0  0  0  0  0  0
  1  2  1  0  0  0  0
  2  3  1  0  0  0  0
  3  4  1  0  0  0  0
  4  5  2  0  0  0  0
  4  6  1  0  0  0  0
  6  7  1  0  0  0  0
  7  8  1  0  0  0  0
  7  9  1  0  0  0  0
  9 10  1  0  0  0  0
 10 11  1  0  0  0  0
 10 12  1  0  0  0  0
 12 13  2  0  0  0  0
 13 14  1  0  0  0  0
 15 14  2  0  0  0  0
 14 30  1  0  0  0  0
 15 16  1  0  0  0  0
 23 15  1  0  0  0  0
 17 16  2  0  0  0  0
 16 22  1  0  0  0  0
 18 17  1  0  0  0  0
 19 18  2  0  0  0  0
 19 20  1  0  0  0  0
 21 19  1  0  0  0  0
 22 21  2  0  0  0  0
 24 23  1  0  0  0  0
 23 28  2  0  0  0  0
 25 24  2  0  0  0  0
 26 25  1  0  0  0  0
 27 26  2  0  0  0  0
 28 27  1  0  0  0  0
 29 28  1  0  0  0  0
 30 29  1  0  0  0  0
 31 30  1  0  0  0  0
 30 34  1  0  0  0  0
 32 31  1  0  0  0  0
 33 32  1  0  0  0  0
 34 33  1  0  0  0  0
M  END
> <Inchi_key>
ZADJRRFMOOACHL-BUHFOSPRSA-N

> <Source>
Mulliner

> <ID>
HT0265

> <H_MFHB>
0

> <CAS>
132017-01-7

> <Cholestasis>


> <Name>
bervastatin

> <Class>
0

$$$$