

  -INDIGO-08031710012D

 18 18  0  0  0  0  0  0  0  0999 V2000
    1.6416   -2.3736    0.0000 C   0  0  0  0  0  0  0  0  0  0  0  0
    2.9407   -1.6235    0.0000 O   0  0  0  0  0  0  0  0  0  0  0  0
    2.9407   -0.1235    0.0000 C   0  0  0  0  0  0  0  0  0  0  0  0
    1.6416    0.6264    0.0000 C   0  0  0  0  0  0  0  0  0  0  0  0
    1.6416    2.1264    0.0000 C   0  0  0  0  0  0  0  0  0  0  0  0
    2.9407    2.8765    0.0000 C   0  0  0  0  0  0  0  0  0  0  0  0
    2.9407    4.3765    0.0000 O   0  0  0  0  0  0  0  0  0  0  0  0
    1.6416    5.1264    0.0000 C   0  0  0  0  0  0  0  0  0  0  0  0
    4.2396    2.1264    0.0000 C   0  0  0  0  0  0  0  0  0  0  0  0
    4.2396    0.6264    0.0000 C   0  0  0  0  0  0  0  0  0  0  0  0
    5.5388    2.8765    0.0000 C   0  0  0  0  0  0  0  0  0  0  0  0
    5.5388    4.3765    0.0000 O   0  0  0  0  0  0  0  0  0  0  0  0
    6.8377    2.1264    0.0000 C   0  0  0  0  0  0  0  0  0  0  0  0
    8.1367    2.8765    0.0000 N   0  0  0  0  0  0  0  0  0  0  0  0
    9.4358    2.1264    0.0000 C   0  0  0  0  0  0  0  0  0  0  0  0
    9.4358    0.6264    0.0000 O   0  0  0  0  0  0  0  0  0  0  0  0
   10.7348    2.8765    0.0000 C   0  0  0  0  0  0  0  0  0  0  0  0
   12.0339    2.1264    0.0000 N   0  0  0  0  0  0  0  0  0  0  0  0
  1  2  1  0  0  0  0
  2  3  1  0  0  0  0
  4  3  2  0  0  0  0
  3 10  1  0  0  0  0
  5  4  1  0  0  0  0
  6  5  2  0  0  0  0
  6  7  1  0  0  0  0
  9  6  1  0  0  0  0
  7  8  1  0  0  0  0
 10  9  2  0  0  0  0
  9 11  1  0  0  0  0
 11 12  1  0  0  0  0
 11 13  1  0  0  0  0
 13 14  1  0  0  0  0
 14 15  1  0  0  0  0
 15 16  2  0  0  0  0
 15 17  1  0  0  0  0
 17 18  1  0  0  0  0
M  END
> <Inchi_key>
PTKSEFOSCHHMPD-UHFFFAOYSA-N

> <Source>
Mulliner , Kotsampasakou

> <ID>
EK0351;HT1396

> <H_MFHB>
0

> <CAS>
43218-56-0

> <Cholestasis>
0

> <Name>
midodrine hydrochloride;midodrine

> <Class>
0


$$$$