

  -INDIGO-08031710012D

 22 25  0  0  0  0  0  0  0  0999 V2000
   -0.1023    0.1771    0.0000 C   0  0  0  0  0  0  0  0  0  0  0  0
    0.6477    1.4762    0.0000 C   0  0  0  0  0  0  0  0  0  0  0  0
    1.3977    0.1771    0.0000 C   0  0  0  0  0  0  0  0  0  0  0  0
    2.8977    0.1771    0.0000 C   0  0  0  0  0  0  0  0  0  0  0  0
    3.6477    1.4762    0.0000 C   0  0  0  0  0  0  0  0  0  0  0  0
    2.8977    2.7752    0.0000 C   0  0  0  0  0  0  0  0  0  0  0  0
    3.6477    4.0743    0.0000 C   0  0  0  0  0  0  0  0  0  0  0  0
    5.1477    4.0743    0.0000 C   0  0  0  0  0  0  0  0  0  0  0  0
    5.8977    2.7752    0.0000 C   0  0  0  0  0  0  0  0  0  0  0  0
    7.3977    2.7752    0.0000 C   0  0  0  0  0  0  0  0  0  0  0  0
    8.1477    1.4762    0.0000 C   0  0  0  0  0  0  0  0  0  0  0  0
    9.6477    1.4762    0.0000 O   0  0  0  0  0  0  0  0  0  0  0  0
    7.3977    0.1771    0.0000 C   0  0  0  0  0  0  0  0  0  0  0  0
    5.8977    0.1771    0.0000 C   0  0  0  0  0  0  0  0  0  0  0  0
    5.1477    1.4762    0.0000 C   0  0  0  0  0  0  0  0  0  0  0  0
    4.3977    0.1771    0.0000 C   0  0  0  0  0  0  0  0  0  0  0  0
    1.3977    2.7752    0.0000 C   0  0  0  0  0  0  0  0  0  0  0  0
    0.6477    4.0743    0.0000 C   0  0  0  0  0  0  0  0  0  0  0  0
   -0.8523    4.0743    0.0000 C   0  0  0  0  0  0  0  0  0  0  0  0
   -1.6023    2.7752    0.0000 C   0  0  0  0  0  0  0  0  0  0  0  0
   -3.1023    2.7752    0.0000 O   0  0  0  0  0  0  0  0  0  0  0  0
   -0.8523    1.4762    0.0000 O   0  0  0  0  0  0  0  0  0  0  0  0
  1  2  1  0  0  0  0
  3  2  1  0  0  0  0
 17  2  1  0  0  0  0
  2 22  1  0  0  0  0
  4  3  1  0  0  0  0
  5  4  1  0  0  0  0
  5  6  1  0  0  0  0
 15  5  1  0  0  0  0
  6  7  1  0  0  0  0
 17  6  1  0  0  0  0
  7  8  1  0  0  0  0
  8  9  1  0  0  0  0
 10  9  2  0  0  0  0
  9 15  1  0  0  0  0
 11 10  1  0  0  0  0
 11 12  2  0  0  0  0
 13 11  1  0  0  0  0
 14 13  2  0  0  0  0
 15 14  1  0  0  0  0
 15 16  1  0  0  0  0
 18 17  1  0  0  0  0
 19 18  1  0  0  0  0
 20 19  1  0  0  0  0
 20 21  2  0  0  0  0
 22 20  1  0  0  0  0
M  END
> <Inchi_key>
BPEWUONYVDABNZ-UHFFFAOYSA-N

> <Source>
Mulliner

> <ID>
HT2016

> <H_MFHB>
0

> <CAS>


> <Cholestasis>


> <Name>
testolactone

> <Class>
0


$$$$