

  -INDIGO-08031710012D

 12 12  0  0  0  0  0  0  0  0999 V2000
    0.7769   -2.8995    0.0000 C   0  0  0  0  0  0  0  0  0  0  0  0
    2.0760   -2.1495    0.0000 C   0  0  0  0  0  0  0  0  0  0  0  0
    3.3750   -2.8995    0.0000 N   0  0  0  0  0  0  0  0  0  0  0  0
    4.6740   -2.1495    0.0000 C   0  0  0  0  0  0  0  0  0  0  0  0
    4.6740   -0.6495    0.0000 C   0  0  0  0  0  0  0  0  0  0  0  0
    5.9731    0.1005    0.0000 C   0  0  0  0  0  0  0  0  0  0  0  0
    7.2721   -0.6495    0.0000 O   0  0  0  0  0  0  0  0  0  0  0  0
    3.3750    0.1005    0.0000 C   0  0  0  0  0  0  0  0  0  0  0  0
    3.3750    1.6005    0.0000 C   0  0  0  0  0  0  0  0  0  0  0  0
    2.0760    2.3505    0.0000 O   0  0  0  0  0  0  0  0  0  0  0  0
    2.0760   -0.6495    0.0000 C   0  0  0  0  0  0  0  0  0  0  0  0
    0.7769    0.1005    0.0000 O   0  0  0  0  0  0  0  0  0  0  0  0
  1  2  1  0  0  0  0
  3  2  2  0  0  0  0
  2 11  1  0  0  0  0
  4  3  1  0  0  0  0
  5  4  2  0  0  0  0
  5  6  1  0  0  0  0
  8  5  1  0  0  0  0
  6  7  1  0  0  0  0
  8  9  1  0  0  0  0
 11  8  2  0  0  0  0
  9 10  2  0  0  0  0
 11 12  1  0  0  0  0
M  END
> <Inchi_key>
RADKZDMFGJYCBB-UHFFFAOYSA-N

> <Source>
Mulliner

> <ID>
HT1777

> <H_MFHB>
0

> <CAS>


> <Cholestasis>


> <Name>
pyridoxal

> <Class>
0


$$$$