
  -INDIGO-08031710012D

 11 11  0  0  0  0  0  0  0  0999 V2000
    5.3437    1.2045    0.0000 C   0  0  0  0  0  0  0  0  0  0  0  0
    4.6348    2.5264    0.0000 C   0  0  0  0  0  0  0  0  0  0  0  0
    3.1355    2.5733    0.0000 C   0  0  0  0  0  0  0  0  0  0  0  0
    3.8809    3.8751    0.0000 C   0  0  0  0  0  0  0  0  0  0  0  0
    2.9062    1.0910    0.0000 O   0  0  0  0  0  0  0  0  0  0  0  0
    1.4255    0.8510    0.0000 C   0  0  0  0  0  0  0  0  0  0  0  0
    0.7493   -0.4879    0.0000 O   0  0  0  0  0  0  0  0  0  0  0  0
    0.7397    2.1851    0.0000 N   0  0  0  0  0  0  0  0  0  0  0  0
   -0.7426    2.4145    0.0000 C   0  0  0  0  0  0  0  0  0  0  0  0
    1.7966    3.2495    0.0000 C   0  0  0  0  0  0  0  0  0  0  0  0
    1.5566    4.7302    0.0000 O   0  0  0  0  0  0  0  0  0  0  0  0
  1  2  1  0  0  0  0
  2  3  1  0  0  0  0
  3  4  1  0  0  0  0
  5  3  1  0  0  0  0
  3 10  1  0  0  0  0
  6  5  1  0  0  0  0
  6  7  2  0  0  0  0
  8  6  1  0  0  0  0
  8  9  1  0  0  0  0
 10  8  1  0  0  0  0
 10 11  2  0  0  0  0
M  END
> <Inchi_key>
VQASKUSHBVDKGU-UHFFFAOYSA-N

> <Source>
Mulliner

> <ID>
HT1590

> <H_MFHB>
0

> <CAS>


> <Cholestasis>


> <Name>
paramethadione

> <Class>
0

$$$$