
  -INDIGO-08031710012D

 22 25  0  0  0  0  0  0  0  0999 V2000
   -0.8532   -0.2287    0.0000 C   0  0  0  0  0  0  0  0  0  0  0  0
    0.4458   -0.9787    0.0000 N   0  0  0  0  0  0  0  0  0  0  0  0
    0.4458   -2.4787    0.0000 C   0  0  0  0  0  0  0  0  0  0  0  0
    1.7448   -3.2287    0.0000 C   0  0  0  0  0  0  0  0  0  0  0  0
    3.0438   -2.4787    0.0000 N   0  0  0  0  0  0  0  0  0  0  0  0
    3.0438   -0.9787    0.0000 C   0  0  0  0  0  0  0  0  0  0  0  0
    1.7448   -0.2287    0.0000 C   0  0  0  0  0  0  0  0  0  0  0  0
    4.3429   -3.2287    0.0000 C   0  0  0  0  0  0  0  0  0  0  0  0
    5.6419   -2.4787    0.0000 N   0  0  0  0  0  0  0  0  0  0  0  0
    6.9409   -3.2287    0.0000 C   0  0  0  0  0  0  0  0  0  0  0  0
    6.9409   -4.7287    0.0000 C   0  0  0  0  0  0  0  0  0  0  0  0
    5.6419   -5.4787    0.0000 C   0  0  0  0  0  0  0  0  0  0  0  0
    4.3429   -4.7287    0.0000 N   0  0  0  0  0  0  0  0  0  0  0  0
   -2.1525   -0.9787    0.0000 C   0  0  0  0  0  0  0  0  0  0  0  0
   -2.1525   -2.4787    0.0000 C   0  0  0  0  0  0  0  0  0  0  0  0
   -3.4513   -3.2287    0.0000 C   0  0  0  0  0  0  0  0  0  0  0  0
   -4.7505   -2.4787    0.0000 C   0  0  0  0  0  0  0  0  0  0  0  0
   -6.1771   -2.9422    0.0000 O   0  0  0  0  0  0  0  0  0  0  0  0
   -7.0587   -1.7287    0.0000 C   0  0  0  0  0  0  0  0  0  0  0  0
   -6.1771   -0.5151    0.0000 O   0  0  0  0  0  0  0  0  0  0  0  0
   -4.7505   -0.9787    0.0000 C   0  0  0  0  0  0  0  0  0  0  0  0
   -3.4513   -0.2287    0.0000 C   0  0  0  0  0  0  0  0  0  0  0  0
  1  2  1  0  0  0  0
  1 14  1  0  0  0  0
  3  2  1  0  0  0  0
  2  7  1  0  0  0  0
  4  3  1  0  0  0  0
  5  4  1  0  0  0  0
  6  5  1  0  0  0  0
  5  8  1  0  0  0  0
  7  6  1  0  0  0  0
  9  8  2  0  0  0  0
  8 13  1  0  0  0  0
 10  9  1  0  0  0  0
 11 10  2  0  0  0  0
 12 11  1  0  0  0  0
 13 12  2  0  0  0  0
 15 14  2  0  0  0  0
 14 22  1  0  0  0  0
 16 15  1  0  0  0  0
 17 16  2  0  0  0  0
 18 17  1  0  0  0  0
 17 21  1  0  0  0  0
 19 18  1  0  0  0  0
 20 19  1  0  0  0  0
 21 20  1  0  0  0  0
 22 21  2  0  0  0  0
M  END
> <Inchi_key>
OQDPVLVUJFGPGQ-UHFFFAOYSA-N

> <Source>
Mulliner

> <ID>
HT1693

> <H_MFHB>
0

> <CAS>
622744

> <Cholestasis>


> <Name>
piribedil

> <Class>
0

$$$$