
  -INDIGO-08031709442D

 15 15  0  0  0  0  0  0  0  0999 V2000
   -2.0490    2.0490    0.0000 N   0  0  0  0  0  0  0  0  0  0  0  0
   -2.0490    0.5490    0.0000 C   0  0  0  0  0  0  0  0  0  0  0  0
   -0.7499   -0.2010    0.0000 N   0  0  0  0  0  0  0  0  0  0  0  0
    0.5490    0.5490    0.0000 C   0  0  0  0  0  0  0  0  0  0  0  0
    0.5490    2.0490    0.0000 N   0  0  0  0  0  0  0  0  0  0  0  0
   -0.7499    2.7990    0.0000 C   0  0  0  0  0  0  0  0  0  0  0  0
   -0.7499    4.2990    0.0000 N   0  0  0  0  0  0  0  0  0  0  0  0
    0.5490    5.0490    0.0000 C   0  0  0  0  0  0  0  0  0  0  0  0
   -2.0490    5.0490    0.0000 C   0  0  0  0  0  0  0  0  0  0  0  0
    1.8481   -0.2010    0.0000 N   0  0  0  0  0  0  0  0  0  0  0  0
    1.8481   -1.7010    0.0000 C   0  0  0  0  0  0  0  0  0  0  0  0
    3.1471    0.5490    0.0000 C   0  0  0  0  0  0  0  0  0  0  0  0
   -3.3481   -0.2010    0.0000 N   0  0  0  0  0  0  0  0  0  0  0  0
   -3.3481   -1.7010    0.0000 C   0  0  0  0  0  0  0  0  0  0  0  0
   -4.6471    0.5490    0.0000 C   0  0  0  0  0  0  0  0  0  0  0  0
  2  1  2  0  0  0  0
  1  6  1  0  0  0  0
  3  2  1  0  0  0  0
  2 13  1  0  0  0  0
  4  3  2  0  0  0  0
  5  4  1  0  0  0  0
  4 10  1  0  0  0  0
  6  5  2  0  0  0  0
  6  7  1  0  0  0  0
  7  8  1  0  0  0  0
  7  9  1  0  0  0  0
 10 11  1  0  0  0  0
 10 12  1  0  0  0  0
 13 14  1  0  0  0  0
 13 15  1  0  0  0  0
M  END
> <Inchi_key>
UUVWYPNAQBNQJQ-UHFFFAOYSA-N

> <Source>
Kotsampasakou

> <ID>
EK0020

> <H_MFHB>


> <CAS>


> <Cholestasis>
0

> <Name>
altretamine

> <Class>
0

$$$$