
  -INDIGO-08031710012D

 20 19  0  0  0  0  0  0  0  0999 V2000
   23.0110   -6.1658    0.0000 C   0  0  0  0  0  0  0  0  0  0  0  0
   21.7119   -5.4158    0.0000 C   0  0  0  0  0  0  0  0  0  0  0  0
   20.4128   -6.1658    0.0000 C   0  0  0  0  0  0  0  0  0  0  0  0
   19.1137   -5.4158    0.0000 C   0  0  0  0  0  0  0  0  0  0  0  0
   17.8150   -6.1658    0.0000 C   0  0  0  0  0  0  0  0  0  0  0  0
   16.5159   -5.4158    0.0000 C   0  0  0  0  0  0  0  0  0  0  0  0
   15.2168   -6.1658    0.0000 C   0  0  0  0  0  0  0  0  0  0  0  0
   13.9177   -5.4158    0.0000 C   0  0  0  0  0  0  0  0  0  0  0  0
   12.6186   -6.1658    0.0000 C   0  0  0  0  0  0  0  0  0  0  0  0
   11.3195   -5.4158    0.0000 C   0  0  0  0  0  0  0  0  0  0  0  0
   10.0207   -6.1658    0.0000 C   0  0  0  0  0  0  0  0  0  0  0  0
    8.7216   -5.4158    0.0000 C   0  0  0  0  0  0  0  0  0  0  0  0
    7.4225   -6.1658    0.0000 C   0  0  0  0  0  0  0  0  0  0  0  0
    6.1234   -5.4158    0.0000 C   0  0  0  0  0  0  0  0  0  0  0  0
    4.8243   -6.1658    0.0000 C   0  0  0  0  0  0  0  0  0  0  0  0
    3.5252   -5.4158    0.0000 C   0  0  0  0  0  0  0  0  0  0  0  0
    2.2261   -6.1658    0.0000 C   0  0  0  0  0  0  0  0  0  0  0  0
    0.9274   -5.4158    0.0000 C   0  0  0  0  0  0  0  0  0  0  0  0
   -0.3717   -6.1658    0.0000 O   0  0  0  0  0  0  0  0  0  0  0  0
    0.9274   -3.9158    0.0000 O   0  0  0  0  0  0  0  0  0  0  0  0
  1  2  1  0  0  0  0
  2  3  1  0  0  0  0
  3  4  1  0  0  0  0
  4  5  1  0  0  0  0
  5  6  1  0  0  0  0
  6  7  1  0  0  0  0
  7  8  1  0  0  0  0
  8  9  1  0  0  0  0
  9 10  1  0  0  0  0
 10 11  1  0  0  0  0
 11 12  1  0  0  0  0
 12 13  1  0  0  0  0
 13 14  1  0  0  0  0
 14 15  1  0  0  0  0
 15 16  1  0  0  0  0
 16 17  1  0  0  0  0
 17 18  1  0  0  0  0
 18 19  2  0  0  0  0
 18 20  1  0  0  0  0
M  END
> <Inchi_key>
QIQXTHQIDYTFRH-UHFFFAOYSA-N

> <Source>
Mulliner

> <ID>
HT3264

> <H_MFHB>
0

> <CAS>


> <Cholestasis>


> <Name>


> <Class>
0

$$$$