
  -INDIGO-08031710012D

  5  5  0  0  0  0  0  0  0  0999 V2000
    4.1785   -1.3392    0.0000 Cl  0  0  0  0  0  0  0  0  0  0  0  0
    2.8794   -2.0892    0.0000 C   0  0  0  0  0  0  0  0  0  0  0  0
    1.5804   -1.3392    0.0000 C   0  0  0  0  0  0  0  0  0  0  0  0
    0.8304   -0.0402    0.0000 C   0  0  0  0  0  0  0  0  0  0  0  0
    0.0804   -1.3392    0.0000 O   0  0  0  0  0  0  0  0  0  0  0  0
  1  2  1  0  0  0  0
  2  3  1  0  0  0  0
  4  3  1  0  0  0  0
  3  5  1  0  0  0  0
  5  4  1  0  0  0  0
M  END
> <Inchi_key>
BRLQWZUYTZBJKN-UHFFFAOYSA-N

> <Source>
Mulliner

> <ID>
HT1882

> <H_MFHB>
0

> <CAS>
106-89-8

> <Cholestasis>


> <Name>
sevelamer carbonate

> <Class>
0

$$$$