
  -INDIGO-08031710012D

 32 36  0  0  0  0  0  0  0  0999 V2000
   15.9099    5.6571    0.0000 C   0  0  0  0  0  0  0  0  0  0  0  0
   14.7466    4.7100    0.0000 C   0  0  0  0  0  0  0  0  0  0  0  0
   13.5833    3.7630    0.0000 C   0  0  0  0  0  0  0  0  0  0  0  0
   12.4200    2.8161    0.0000 C   0  0  0  0  0  0  0  0  0  0  0  0
   12.1300    4.2879    0.0000 O   0  0  0  0  0  0  0  0  0  0  0  0
   13.3048    1.6048    0.0000 C   0  0  0  0  0  0  0  0  0  0  0  0
   12.4264    0.3890    0.0000 C   0  0  0  0  0  0  0  0  0  0  0  0
   10.9985    0.8490    0.0000 C   0  0  0  0  0  0  0  0  0  0  0  0
    9.7014    0.0956    0.0000 C   0  0  0  0  0  0  0  0  0  0  0  0
    9.7052   -1.4044    0.0000 C   0  0  0  0  0  0  0  0  0  0  0  0
    8.4080   -2.1578    0.0000 C   0  0  0  0  0  0  0  0  0  0  0  0
    7.1072   -1.4111    0.0000 C   0  0  0  0  0  0  0  0  0  0  0  0
    5.8100   -2.1644    0.0000 C   0  0  0  0  0  0  0  0  0  0  0  0
    4.5090   -1.4178    0.0000 C   0  0  0  0  0  0  0  0  0  0  0  0
    3.2120   -2.1711    0.0000 O   0  0  0  0  0  0  0  0  0  0  0  0
    4.5051    0.0822    0.0000 C   0  0  0  0  0  0  0  0  0  0  0  0
    5.8023    0.8356    0.0000 C   0  0  0  0  0  0  0  0  0  0  0  0
    7.1034    0.0890    0.0000 C   0  0  0  0  0  0  0  0  0  0  0  0
    8.4003    0.8422    0.0000 C   0  0  0  0  0  0  0  0  0  0  0  0
    8.3967    2.3422    0.0000 C   0  0  0  0  0  0  0  0  0  0  0  0
    9.6937    3.0956    0.0000 C   0  0  0  0  0  0  0  0  0  0  0  0
   10.9947    2.3489    0.0000 C   0  0  0  0  0  0  0  0  0  0  0  0
   11.1215    3.8435    0.0000 C   0  0  0  0  0  0  0  0  0  0  0  0
    7.0957    3.0890    0.0000 C   0  0  0  0  0  0  0  0  0  0  0  0
    7.0918    4.5889    0.0000 C   0  0  0  0  0  0  0  0  0  0  0  0
    5.7908    5.3356    0.0000 C   0  0  0  0  0  0  0  0  0  0  0  0
    4.4936    4.5822    0.0000 C   0  0  0  0  0  0  0  0  0  0  0  0
    4.4974    3.0822    0.0000 C   0  0  0  0  0  0  0  0  0  0  0  0
    5.7985    2.3356    0.0000 C   0  0  0  0  0  0  0  0  0  0  0  0
    3.1928    5.3290    0.0000 N   0  0  0  0  0  0  0  0  0  0  0  0
    3.1889    6.8289    0.0000 C   0  0  0  0  0  0  0  0  0  0  0  0
    1.8956    4.5754    0.0000 C   0  0  0  0  0  0  0  0  0  0  0  0
  1  2  1  0  0  0  0
  2  3  3  0  0  0  0
  3  4  1  0  0  0  0
  4  5  1  0  0  0  0
  6  4  1  0  0  0  0
  4 22  1  0  0  0  0
  7  6  1  0  0  0  0
  8  7  1  0  0  0  0
  9  8  1  0  0  0  0
  8 22  1  0  0  0  0
 10  9  1  0  0  0  0
  9 19  1  0  0  0  0
 11 10  1  0  0  0  0
 12 11  1  0  0  0  0
 13 12  2  0  0  0  0
 12 18  1  0  0  0  0
 14 13  1  0  0  0  0
 14 15  2  0  0  0  0
 16 14  1  0  0  0  0
 17 16  1  0  0  0  0
 18 17  1  0  0  0  0
 19 18  2  0  0  0  0
 20 19  1  0  0  0  0
 21 20  1  0  0  0  0
 20 24  1  0  0  0  0
 22 21  1  0  0  0  0
 22 23  1  0  0  0  0
 25 24  2  0  0  0  0
 24 29  1  0  0  0  0
 26 25  1  0  0  0  0
 27 26  2  0  0  0  0
 28 27  1  0  0  0  0
 27 30  1  0  0  0  0
 29 28  2  0  0  0  0
 30 31  1  0  0  0  0
 30 32  1  0  0  0  0
M  END
> <Inchi_key>
VKHAHZOOUSRJNA-UHFFFAOYSA-N

> <Source>
Mulliner , Kotsampasakou

> <ID>
EK0352;HT1398

> <H_MFHB>
0

> <CAS>
84371-65-3

> <Cholestasis>
0

> <Name>
mifepristone

> <Class>
0

$$$$