

  -INDIGO-08031710012D

 20 23  0  0  0  0  0  0  0  0999 V2000
    2.1073   -1.3340    0.0000 O   0  0  0  0  0  0  0  0  0  0  0  0
    1.4656    0.0218    0.0000 C   0  0  0  0  0  0  0  0  0  0  0  0
    1.4569    1.5218    0.0000 N   0  0  0  0  0  0  0  0  0  0  0  0
    2.3317    2.7403    0.0000 C   0  0  0  0  0  0  0  0  0  0  0  0
    1.4431    3.9488    0.0000 C   0  0  0  0  0  0  0  0  0  0  0  0
    0.0191    3.4770    0.0000 N   0  0  0  0  0  0  0  0  0  0  0  0
    0.0276    1.9771    0.0000 C   0  0  0  0  0  0  0  0  0  0  0  0
   -0.8470    0.7585    0.0000 C   0  0  0  0  0  0  0  0  0  0  0  0
   -2.3378    0.5931    0.0000 C   0  0  0  0  0  0  0  0  0  0  0  0
   -2.9400   -0.7807    0.0000 C   0  0  0  0  0  0  0  0  0  0  0  0
   -2.0514   -1.9891    0.0000 C   0  0  0  0  0  0  0  0  0  0  0  0
   -0.5604   -1.8237    0.0000 C   0  0  0  0  0  0  0  0  0  0  0  0
    0.0418   -0.4499    0.0000 C   0  0  0  0  0  0  0  0  0  0  0  0
    2.9640   -0.0481    0.0000 C   0  0  0  0  0  0  0  0  0  0  0  0
    3.6525   -1.3807    0.0000 C   0  0  0  0  0  0  0  0  0  0  0  0
    5.1509   -1.4505    0.0000 C   0  0  0  0  0  0  0  0  0  0  0  0
    5.9607   -0.1879    0.0000 C   0  0  0  0  0  0  0  0  0  0  0  0
    7.4591   -0.2577    0.0000 Cl  0  0  0  0  0  0  0  0  0  0  0  0
    5.2720    1.1447    0.0000 C   0  0  0  0  0  0  0  0  0  0  0  0
    3.7738    1.2146    0.0000 C   0  0  0  0  0  0  0  0  0  0  0  0
  1  2  1  0  0  0  0
  3  2  1  0  0  0  0
  2 13  1  0  0  0  0
  2 14  1  0  0  0  0
  4  3  1  0  0  0  0
  3  7  1  0  0  0  0
  5  4  1  0  0  0  0
  6  5  1  0  0  0  0
  7  6  2  0  0  0  0
  8  7  1  0  0  0  0
  9  8  2  0  0  0  0
  8 13  1  0  0  0  0
 10  9  1  0  0  0  0
 11 10  2  0  0  0  0
 12 11  1  0  0  0  0
 13 12  2  0  0  0  0
 15 14  2  0  0  0  0
 14 20  1  0  0  0  0
 16 15  1  0  0  0  0
 17 16  2  0  0  0  0
 17 18  1  0  0  0  0
 19 17  1  0  0  0  0
 20 19  2  0  0  0  0
M  END
> <Inchi_key>
ZPXSCAKFGYXMGA-UHFFFAOYSA-N

> <Source>
Mulliner

> <ID>
HT1274

> <H_MFHB>
0

> <CAS>


> <Cholestasis>


> <Name>
mazindol

> <Class>
0


$$$$