

  -INDIGO-08031710012D

 15 16  0  0  0  0  0  0  0  0999 V2000
    0.8000   -3.8105    0.0000 O   0  0  0  0  0  0  0  0  0  0  0  0
    1.5499   -2.5115    0.0000 C   0  0  0  0  0  0  0  0  0  0  0  0
    0.8000   -1.2124    0.0000 N   0  0  0  0  0  0  0  0  0  0  0  0
    3.0501   -2.5115    0.0000 C   0  0  0  0  0  0  0  0  0  0  0  0
    3.8000   -3.8105    0.0000 Br  0  0  0  0  0  0  0  0  0  0  0  0
    3.8000   -1.2124    0.0000 C   0  0  0  0  0  0  0  0  0  0  0  0
    3.0501    0.0866    0.0000 N   0  0  0  0  0  0  0  0  0  0  0  0
    5.3000   -1.2124    0.0000 C   0  0  0  0  0  0  0  0  0  0  0  0
    1.5499    0.0866    0.0000 C   0  0  0  0  0  0  0  0  0  0  0  0
    6.0501   -2.5115    0.0000 C   0  0  0  0  0  0  0  0  0  0  0  0
    6.0501    0.0866    0.0000 C   0  0  0  0  0  0  0  0  0  0  0  0
    0.8000    1.3856    0.0000 N   0  0  0  0  0  0  0  0  0  0  0  0
    7.5501   -2.5115    0.0000 C   0  0  0  0  0  0  0  0  0  0  0  0
    7.5501    0.0866    0.0000 C   0  0  0  0  0  0  0  0  0  0  0  0
    8.3000   -1.2124    0.0000 C   0  0  0  0  0  0  0  0  0  0  0  0
  1  2  2  0  0  0  0
  3  2  1  0  0  0  0
  2  4  1  0  0  0  0
  4  5  1  0  0  0  0
  4  6  2  0  0  0  0
  6  7  1  0  0  0  0
  6  8  1  0  0  0  0
  7  9  2  0  0  0  0
 10  8  2  0  0  0  0
  8 11  1  0  0  0  0
  9 12  1  0  0  0  0
  9  3  1  0  0  0  0
 13 10  1  0  0  0  0
 11 14  2  0  0  0  0
 15 13  2  0  0  0  0
 14 15  1  0  0  0  0
M  END
> <Inchi_key>
CIUUIPMOFZIWIZ-UHFFFAOYSA-N

> <Source>
Mulliner

> <ID>
HT0317

> <H_MFHB>
0

> <CAS>
56741-95-8

> <Cholestasis>


> <Name>
bropirimine

> <Class>
0


$$$$