
  -INDIGO-08031710012D

 27 29  0  0  0  0  0  0  0  0999 V2000
   -7.1698    4.9352    0.0000 O   0  0  0  0  0  0  0  0  0  0  0  0
   -8.4688    4.1852    0.0000 C   0  0  0  0  0  0  0  0  0  0  0  0
   -9.7679    4.9352    0.0000 O   0  0  0  0  0  0  0  0  0  0  0  0
   -8.4688    2.6852    0.0000 C   0  0  0  0  0  0  0  0  0  0  0  0
   -9.7679    1.9352    0.0000 C   0  0  0  0  0  0  0  0  0  0  0  0
   -9.7679    0.4352    0.0000 C   0  0  0  0  0  0  0  0  0  0  0  0
   -8.4688   -0.3148    0.0000 C   0  0  0  0  0  0  0  0  0  0  0  0
   -7.1698    0.4352    0.0000 C   0  0  0  0  0  0  0  0  0  0  0  0
   -7.1698    1.9352    0.0000 C   0  0  0  0  0  0  0  0  0  0  0  0
   -5.8707    2.6852    0.0000 C   0  0  0  0  0  0  0  0  0  0  0  0
   -5.8707    4.1852    0.0000 O   0  0  0  0  0  0  0  0  0  0  0  0
   -4.5716    1.9352    0.0000 N   0  0  0  0  0  0  0  0  0  0  0  0
   -3.2728    2.6852    0.0000 C   0  0  0  0  0  0  0  0  0  0  0  0
   -3.2728    4.1852    0.0000 C   0  0  0  0  0  0  0  0  0  0  0  0
   -1.9735    4.9352    0.0000 C   0  0  0  0  0  0  0  0  0  0  0  0
   -0.6747    4.1852    0.0000 C   0  0  0  0  0  0  0  0  0  0  0  0
   -0.6747    2.6852    0.0000 C   0  0  0  0  0  0  0  0  0  0  0  0
   -1.9735    1.9352    0.0000 C   0  0  0  0  0  0  0  0  0  0  0  0
    0.6244    4.9352    0.0000 S   0  0  0  0  0  0  0  0  0  0  0  0
    1.3744    3.6362    0.0000 O   0  0  0  0  0  0  0  0  0  0  0  0
   -0.1256    6.2342    0.0000 O   0  0  0  0  0  0  0  0  0  0  0  0
    1.9234    5.6852    0.0000 N   0  0  0  0  0  0  0  0  0  0  0  0
    3.2225    4.9352    0.0000 C   0  0  0  0  0  0  0  0  0  0  0  0
    3.3793    3.4434    0.0000 N   0  0  0  0  0  0  0  0  0  0  0  0
    4.8465    3.1316    0.0000 C   0  0  0  0  0  0  0  0  0  0  0  0
    5.5965    4.4306    0.0000 C   0  0  0  0  0  0  0  0  0  0  0  0
    4.5928    5.5453    0.0000 S   0  0  0  0  0  0  0  0  0  0  0  0
  1  2  1  0  0  0  0
  2  3  2  0  0  0  0
  2  4  1  0  0  0  0
  5  4  2  0  0  0  0
  4  9  1  0  0  0  0
  6  5  1  0  0  0  0
  7  6  2  0  0  0  0
  8  7  1  0  0  0  0
  9  8  2  0  0  0  0
  9 10  1  0  0  0  0
 10 11  2  0  0  0  0
 10 12  1  0  0  0  0
 12 13  1  0  0  0  0
 14 13  2  0  0  0  0
 13 18  1  0  0  0  0
 15 14  1  0  0  0  0
 16 15  2  0  0  0  0
 17 16  1  0  0  0  0
 16 19  1  0  0  0  0
 18 17  2  0  0  0  0
 19 20  2  0  0  0  0
 19 21  2  0  0  0  0
 19 22  1  0  0  0  0
 22 23  1  0  0  0  0
 24 23  2  0  0  0  0
 23 27  1  0  0  0  0
 25 24  1  0  0  0  0
 26 25  2  0  0  0  0
 27 26  1  0  0  0  0
M  END
> <Inchi_key>
PBMSWVPMRUJMPE-UHFFFAOYSA-N

> <Source>
Mulliner

> <ID>
HT1665

> <H_MFHB>
0

> <CAS>


> <Cholestasis>


> <Name>
phthalylsulfathiazole

> <Class>
0

$$$$