

  -INDIGO-08031710012D

 12 12  0  0  0  0  0  0  0  0999 V2000
   -0.0078   -0.0135    0.0000 C   0  0  0  0  0  0  0  0  0  0  0  0
    0.7422   -1.3125    0.0000 C   0  0  0  0  0  0  0  0  0  0  0  0
    1.4922   -2.6115    0.0000 C   0  0  0  0  0  0  0  0  0  0  0  0
   -0.5568   -2.0625    0.0000 N   0  0  0  0  0  0  0  0  0  0  0  0
    2.0413   -0.5625    0.0000 C   0  0  0  0  0  0  0  0  0  0  0  0
    3.3404   -1.3125    0.0000 C   0  0  0  0  0  0  0  0  0  0  0  0
    4.6393   -0.5625    0.0000 C   0  0  0  0  0  0  0  0  0  0  0  0
    5.9384   -1.3125    0.0000 C   0  0  0  0  0  0  0  0  0  0  0  0
    5.9384   -2.8125    0.0000 C   0  0  0  0  0  0  0  0  0  0  0  0
    7.2374   -3.5625    0.0000 Cl  0  0  0  0  0  0  0  0  0  0  0  0
    4.6393   -3.5625    0.0000 C   0  0  0  0  0  0  0  0  0  0  0  0
    3.3404   -2.8125    0.0000 C   0  0  0  0  0  0  0  0  0  0  0  0
  1  2  1  0  0  0  0
  2  3  1  0  0  0  0
  2  4  1  0  0  0  0
  2  5  1  0  0  0  0
  5  6  1  0  0  0  0
  7  6  2  0  0  0  0
  6 12  1  0  0  0  0
  8  7  1  0  0  0  0
  9  8  2  0  0  0  0
  9 10  1  0  0  0  0
 11  9  1  0  0  0  0
 12 11  2  0  0  0  0
M  END
> <Inchi_key>
ZCKAMNXUHHNZLN-UHFFFAOYSA-N

> <Source>
Mulliner

> <ID>
HT0467

> <H_MFHB>
0

> <CAS>


> <Cholestasis>


> <Name>
chlorphentermine hydrochloride

> <Class>
0


$$$$