

  -INDIGO-08031710012D

 20 20  0  0  0  0  0  0  0  0999 V2000
   12.5327    3.3581    0.0000 C   0  0  0  0  0  0  0  0  0  0  0  0
   11.2338    2.6081    0.0000 C   0  0  0  0  0  0  0  0  0  0  0  0
    9.9347    3.3581    0.0000 C   0  0  0  0  0  0  0  0  0  0  0  0
    8.6356    2.6081    0.0000 N   0  0  0  0  0  0  0  0  0  0  0  0
    8.6356    1.1081    0.0000 C   0  0  0  0  0  0  0  0  0  0  0  0
    9.9347    0.3581    0.0000 C   0  0  0  0  0  0  0  0  0  0  0  0
    7.3365    3.3581    0.0000 C   0  0  0  0  0  0  0  0  0  0  0  0
    7.3365    4.8581    0.0000 C   0  0  0  0  0  0  0  0  0  0  0  0
    8.6356    5.6081    0.0000 C   0  0  0  0  0  0  0  0  0  0  0  0
    6.0375    2.6081    0.0000 C   0  0  0  0  0  0  0  0  0  0  0  0
    6.0375    1.1081    0.0000 O   0  0  0  0  0  0  0  0  0  0  0  0
    4.7384    3.3581    0.0000 N   0  0  0  0  0  0  0  0  0  0  0  0
    3.4393    2.6081    0.0000 C   0  0  0  0  0  0  0  0  0  0  0  0
    2.1404    3.3581    0.0000 C   0  0  0  0  0  0  0  0  0  0  0  0
    2.1404    4.8581    0.0000 C   0  0  0  0  0  0  0  0  0  0  0  0
    0.8413    2.6081    0.0000 C   0  0  0  0  0  0  0  0  0  0  0  0
    0.8413    1.1081    0.0000 C   0  0  0  0  0  0  0  0  0  0  0  0
    2.1404    0.3581    0.0000 C   0  0  0  0  0  0  0  0  0  0  0  0
    3.4393    1.1081    0.0000 C   0  0  0  0  0  0  0  0  0  0  0  0
    4.7384    0.3581    0.0000 C   0  0  0  0  0  0  0  0  0  0  0  0
  1  2  1  0  0  0  0
  2  3  1  0  0  0  0
  3  4  1  0  0  0  0
  4  5  1  0  0  0  0
  4  7  1  0  0  0  0
  5  6  1  0  0  0  0
  7  8  1  0  0  0  0
  7 10  1  0  0  0  0
  8  9  1  0  0  0  0
 10 11  2  0  0  0  0
 10 12  1  0  0  0  0
 12 13  1  0  0  0  0
 14 13  2  0  0  0  0
 13 19  1  0  0  0  0
 14 15  1  0  0  0  0
 16 14  1  0  0  0  0
 17 16  2  0  0  0  0
 18 17  1  0  0  0  0
 19 18  2  0  0  0  0
 19 20  1  0  0  0  0
M  END
> <Inchi_key>
VTUSIVBDOCDNHS-UHFFFAOYSA-N

> <Source>
Mulliner

> <ID>
HT0824

> <H_MFHB>
0

> <CAS>


> <Cholestasis>


> <Name>
etidocaine

> <Class>
0


$$$$