

  -INDIGO-08031710012D

 23 24  0  0  0  0  0  0  0  0999 V2000
   -0.3013   -7.5558    0.0000 C   0  0  0  0  0  0  0  0  0  0  0  0
    0.4486   -6.2568    0.0000 C   0  0  0  0  0  0  0  0  0  0  0  0
   -0.3013   -4.9577    0.0000 O   0  0  0  0  0  0  0  0  0  0  0  0
    1.9486   -6.2568    0.0000 O   0  0  0  0  0  0  0  0  0  0  0  0
    2.6988   -4.9577    0.0000 C   0  0  0  0  0  0  0  0  0  0  0  0
    4.1988   -4.9577    0.0000 C   0  0  0  0  0  0  0  0  0  0  0  0
    4.9487   -3.6587    0.0000 C   0  0  0  0  0  0  0  0  0  0  0  0
    6.4487   -3.6587    0.0000 N   0  0  0  0  0  0  0  0  0  0  0  0
    7.1986   -4.9577    0.0000 C   0  0  0  0  0  0  0  0  0  0  0  0
    6.4487   -6.2568    0.0000 S   0  0  0  0  0  0  0  0  0  0  0  0
    4.9487   -6.2568    0.0000 C   0  0  0  0  0  0  0  0  0  0  0  0
    8.4977   -4.2077    0.0000 C   0  0  0  0  0  0  0  0  0  0  0  0
    9.9466   -4.5960    0.0000 N   0  0  0  0  0  0  0  0  0  0  0  0
   11.0074   -3.5353    0.0000 C   0  0  0  0  0  0  0  0  0  0  0  0
   10.6189   -2.0864    0.0000 O   0  0  0  0  0  0  0  0  0  0  0  0
   12.4561   -3.9235    0.0000 C   0  0  0  0  0  0  0  0  0  0  0  0
   13.5168   -2.8629    0.0000 C   0  0  0  0  0  0  0  0  0  0  0  0
   14.5775   -1.8022    0.0000 N   0  0  0  0  0  0  0  0  0  0  0  0
    7.7478   -2.9087    0.0000 C   0  0  0  0  0  0  0  0  0  0  0  0
    8.1358   -1.4598    0.0000 O   0  0  0  0  0  0  0  0  0  0  0  0
    4.1988   -2.3597    0.0000 C   0  0  0  0  0  0  0  0  0  0  0  0
    4.9487   -1.0606    0.0000 O   0  0  0  0  0  0  0  0  0  0  0  0
    2.6988   -2.3597    0.0000 O   0  0  0  0  0  0  0  0  0  0  0  0
  1  2  1  0  0  0  0
  2  3  2  0  0  0  0
  2  4  1  0  0  0  0
  4  5  1  0  0  0  0
  5  6  1  0  0  0  0
  7  6  2  0  0  0  0
  6 11  1  0  0  0  0
  8  7  1  0  0  0  0
  7 21  1  0  0  0  0
  8  9  1  0  0  0  0
 19  8  1  0  0  0  0
 10  9  1  0  0  0  0
  9 12  1  0  0  0  0
 11 10  1  0  0  0  0
 12 13  1  0  0  0  0
 12 19  1  0  0  0  0
 13 14  1  0  0  0  0
 14 15  2  0  0  0  0
 14 16  1  0  0  0  0
 16 17  1  0  0  0  0
 17 18  3  0  0  0  0
 19 20  2  0  0  0  0
 21 22  2  0  0  0  0
 21 23  1  0  0  0  0
M  END
> <Inchi_key>
RRYMAQUWDLIUPV-UHFFFAOYSA-N

> <Source>
Mulliner

> <ID>
HT0393

> <H_MFHB>
0

> <CAS>


> <Cholestasis>


> <Name>
cefacetrile

> <Class>
0


$$$$