

  -INDIGO-08031710012D

 11 11  0  0  0  0  0  0  0  0999 V2000
    3.5908    1.3334    0.0000 N   0  0  0  0  0  0  0  0  0  0  0  0
    3.6316    2.8329    0.0000 C   0  0  0  0  0  0  0  0  0  0  0  0
    4.9506    3.5472    0.0000 O   0  0  0  0  0  0  0  0  0  0  0  0
    2.3535    3.6179    0.0000 N   0  0  0  0  0  0  0  0  0  0  0  0
    1.0345    2.9035    0.0000 C   0  0  0  0  0  0  0  0  0  0  0  0
    0.8372    1.4166    0.0000 N   0  0  0  0  0  0  0  0  0  0  0  0
   -0.6380    1.1447    0.0000 C   0  0  0  0  0  0  0  0  0  0  0  0
   -1.2851   -0.2085    0.0000 O   0  0  0  0  0  0  0  0  0  0  0  0
   -1.3524    2.4637    0.0000 N   0  0  0  0  0  0  0  0  0  0  0  0
   -0.3187    3.5507    0.0000 C   0  0  0  0  0  0  0  0  0  0  0  0
   -0.5906    5.0258    0.0000 O   0  0  0  0  0  0  0  0  0  0  0  0
  1  2  1  0  0  0  0
  2  3  2  0  0  0  0
  2  4  1  0  0  0  0
  4  5  1  0  0  0  0
  6  5  1  0  0  0  0
  5 10  1  0  0  0  0
  7  6  1  0  0  0  0
  7  8  2  0  0  0  0
  9  7  1  0  0  0  0
 10  9  1  0  0  0  0
 10 11  2  0  0  0  0
M  END
> <Inchi_key>
POJWUDADGALRAB-UHFFFAOYSA-N

> <Source>
Mulliner

> <ID>
HT0101

> <H_MFHB>
0

> <CAS>


> <Cholestasis>


> <Name>
allantoin

> <Class>
0


$$$$