
  -INDIGO-08031710012D

 52 55  0  0  0  0  0  0  0  0999 V2000
    1.9303   -7.1342    0.0000 C   0  0  0  0  0  0  0  0  0  0  0  0
    3.2258   -6.3778    0.0000 C   0  0  0  0  0  0  0  0  0  0  0  0
    4.5284   -7.1215    0.0000 C   0  0  0  0  0  0  0  0  0  0  0  0
    3.2183   -4.8779    0.0000 C   0  0  0  0  0  0  0  0  0  0  0  0
    1.9157   -4.1343    0.0000 C   0  0  0  0  0  0  0  0  0  0  0  0
    1.9083   -2.6342    0.0000 N   0  0  0  0  0  0  0  0  0  0  0  0
    3.2037   -1.8779    0.0000 C   0  0  0  0  0  0  0  0  0  0  0  0
    3.1963   -0.3778    0.0000 O   0  0  0  0  0  0  0  0  0  0  0  0
    4.5064   -2.6215    0.0000 C   0  0  0  0  0  0  0  0  0  0  0  0
    5.8016   -1.8652    0.0000 C   0  0  0  0  0  0  0  0  0  0  0  0
    5.7944   -0.3651    0.0000 C   0  0  0  0  0  0  0  0  0  0  0  0
    7.0896    0.3913    0.0000 C   0  0  0  0  0  0  0  0  0  0  0  0
    7.0825    1.8911    0.0000 C   0  0  0  0  0  0  0  0  0  0  0  0
    8.3776    2.6475    0.0000 C   0  0  0  0  0  0  0  0  0  0  0  0
    9.6803    1.9038    0.0000 C   0  0  0  0  0  0  0  0  0  0  0  0
    9.6877    0.4040    0.0000 C   0  0  0  0  0  0  0  0  0  0  0  0
    8.3925   -0.3526    0.0000 C   0  0  0  0  0  0  0  0  0  0  0  0
    4.5138   -4.1216    0.0000 N   0  0  0  0  0  0  0  0  0  0  0  0
    5.8164   -4.8651    0.0000 C   0  0  0  0  0  0  0  0  0  0  0  0
    5.8236   -6.3651    0.0000 O   0  0  0  0  0  0  0  0  0  0  0  0
    7.1116   -4.1089    0.0000 C   0  0  0  0  0  0  0  0  0  0  0  0
    8.4145   -4.8524    0.0000 N   0  0  0  0  0  0  0  0  0  0  0  0
    9.7097   -4.0962    0.0000 C   0  0  0  0  0  0  0  0  0  0  0  0
   11.0124   -4.8397    0.0000 C   0  0  0  0  0  0  0  0  0  0  0  0
   11.0198   -6.3397    0.0000 O   0  0  0  0  0  0  0  0  0  0  0  0
    9.7246   -7.0961    0.0000 C   0  0  0  0  0  0  0  0  0  0  0  0
    8.4217   -6.3524    0.0000 C   0  0  0  0  0  0  0  0  0  0  0  0
    0.6202   -4.8906    0.0000 C   0  0  0  0  0  0  0  0  0  0  0  0
    0.6276   -6.3907    0.0000 O   0  0  0  0  0  0  0  0  0  0  0  0
   -0.6824   -4.1470    0.0000 N   0  0  0  0  0  0  0  0  0  0  0  0
   -1.9779   -4.9033    0.0000 C   0  0  0  0  0  0  0  0  0  0  0  0
   -1.9705   -6.4032    0.0000 C   0  0  0  0  0  0  0  0  0  0  0  0
   -3.2657   -7.1596    0.0000 C   0  0  0  0  0  0  0  0  0  0  0  0
   -4.5686   -6.4159    0.0000 C   0  0  0  0  0  0  0  0  0  0  0  0
   -5.8638   -7.1723    0.0000 C   0  0  0  0  0  0  0  0  0  0  0  0
   -5.8566   -8.6723    0.0000 C   0  0  0  0  0  0  0  0  0  0  0  0
   -4.5537   -9.4160    0.0000 C   0  0  0  0  0  0  0  0  0  0  0  0
   -3.2585   -8.6596    0.0000 C   0  0  0  0  0  0  0  0  0  0  0  0
   -3.2805   -4.1597    0.0000 C   0  0  0  0  0  0  0  0  0  0  0  0
   -4.5757   -4.9160    0.0000 O   0  0  0  0  0  0  0  0  0  0  0  0
   -3.2877   -2.6596    0.0000 N   0  0  0  0  0  0  0  0  0  0  0  0
   -4.5906   -1.9161    0.0000 C   0  0  0  0  0  0  0  0  0  0  0  0
   -5.8858   -2.6723    0.0000 C   0  0  0  0  0  0  0  0  0  0  0  0
   -7.1884   -1.9288    0.0000 C   0  0  0  0  0  0  0  0  0  0  0  0
   -8.4839   -2.6850    0.0000 C   0  0  0  0  0  0  0  0  0  0  0  0
   -7.1959   -0.4288    0.0000 C   0  0  0  0  0  0  0  0  0  0  0  0
   -4.5977   -0.4161    0.0000 C   0  0  0  0  0  0  0  0  0  0  0  0
   -5.9004    0.3276    0.0000 O   0  0  0  0  0  0  0  0  0  0  0  0
   -3.3026    0.3403    0.0000 C   0  0  0  0  0  0  0  0  0  0  0  0
   -4.3683    1.3958    0.0000 C   0  0  0  0  0  0  0  0  0  0  0  0
   -1.9196    0.9210    0.0000 C   0  0  0  0  0  0  0  0  0  0  0  0
   -2.1080   -0.5670    0.0000 O   0  0  0  0  0  0  0  0  0  0  0  0
  1  2  1  0  0  0  0
  2  3  1  0  0  0  0
  2  4  1  0  0  0  0
  4  5  1  0  0  0  0
  5  6  1  0  0  0  0
  5 28  1  0  0  0  0
  6  7  1  0  0  0  0
  7  8  2  0  0  0  0
  7  9  1  0  0  0  0
  9 10  1  0  0  0  0
  9 18  1  0  0  0  0
 10 11  1  0  0  0  0
 11 12  1  0  0  0  0
 13 12  2  0  0  0  0
 12 17  1  0  0  0  0
 14 13  1  0  0  0  0
 15 14  2  0  0  0  0
 16 15  1  0  0  0  0
 17 16  2  0  0  0  0
 18 19  1  0  0  0  0
 19 20  2  0  0  0  0
 19 21  1  0  0  0  0
 21 22  1  0  0  0  0
 23 22  1  0  0  0  0
 22 27  1  0  0  0  0
 24 23  1  0  0  0  0
 25 24  1  0  0  0  0
 26 25  1  0  0  0  0
 27 26  1  0  0  0  0
 28 29  2  0  0  0  0
 28 30  1  0  0  0  0
 30 31  1  0  0  0  0
 31 32  1  0  0  0  0
 31 39  1  0  0  0  0
 32 33  1  0  0  0  0
 34 33  2  0  0  0  0
 33 38  1  0  0  0  0
 35 34  1  0  0  0  0
 36 35  2  0  0  0  0
 37 36  1  0  0  0  0
 38 37  2  0  0  0  0
 39 40  2  0  0  0  0
 39 41  1  0  0  0  0
 41 42  1  0  0  0  0
 42 43  1  0  0  0  0
 42 47  1  0  0  0  0
 43 44  1  0  0  0  0
 44 45  1  0  0  0  0
 44 46  1  0  0  0  0
 47 48  2  0  0  0  0
 47 49  1  0  0  0  0
 49 50  1  0  0  0  0
 51 49  1  0  0  0  0
 49 52  1  0  0  0  0
 52 51  1  0  0  0  0
M  END
> <Inchi_key>
BLMPQMFVWMYDKT-UHFFFAOYSA-N

> <Source>
Mulliner

> <ID>
HT0383

> <H_MFHB>
0

> <CAS>


> <Cholestasis>


> <Name>
carfilzomib

> <Class>
0

$$$$