
  -INDIGO-08031710012D

 26 27  0  0  0  0  0  0  0  0999 V2000
    6.3855    9.9963    0.0000 N   0  0  0  0  0  0  0  0  0  0  0  0
    7.0159    8.6353    0.0000 C   0  0  0  0  0  0  0  0  0  0  0  0
    8.5100    8.5010    0.0000 N   0  0  0  0  0  0  0  0  0  0  0  0
    6.1527    7.4087    0.0000 N   0  0  0  0  0  0  0  0  0  0  0  0
    4.6586    7.5430    0.0000 C   0  0  0  0  0  0  0  0  0  0  0  0
    3.6720    6.4133    0.0000 N   0  0  0  0  0  0  0  0  0  0  0  0
    2.2925    7.0028    0.0000 C   0  0  0  0  0  0  0  0  0  0  0  0
    1.0050    6.2333    0.0000 C   0  0  0  0  0  0  0  0  0  0  0  0
   -0.3051    6.9637    0.0000 S   0  0  0  0  0  0  0  0  0  0  0  0
   -1.5929    6.1943    0.0000 C   0  0  0  0  0  0  0  0  0  0  0  0
   -2.9029    6.9247    0.0000 C   0  0  0  0  0  0  0  0  0  0  0  0
   -4.1907    6.1552    0.0000 N   0  0  0  0  0  0  0  0  0  0  0  0
   -5.5008    6.8856    0.0000 C   0  0  0  0  0  0  0  0  0  0  0  0
   -5.5234    8.3854    0.0000 N   0  0  0  0  0  0  0  0  0  0  0  0
   -6.8335    9.1158    0.0000 S   0  0  0  0  0  0  0  0  0  0  0  0
   -7.5638    7.8056    0.0000 O   0  0  0  0  0  0  0  0  0  0  0  0
   -6.1033   10.4260    0.0000 O   0  0  0  0  0  0  0  0  0  0  0  0
   -8.1436    9.8462    0.0000 C   0  0  0  0  0  0  0  0  0  0  0  0
   -9.4314    9.0767    0.0000 C   0  0  0  0  0  0  0  0  0  0  0  0
  -10.7415    9.8071    0.0000 C   0  0  0  0  0  0  0  0  0  0  0  0
  -10.7641   11.3070    0.0000 C   0  0  0  0  0  0  0  0  0  0  0  0
  -12.0742   12.0373    0.0000 Br  0  0  0  0  0  0  0  0  0  0  0  0
   -9.4763   12.0764    0.0000 C   0  0  0  0  0  0  0  0  0  0  0  0
   -8.1662   11.3460    0.0000 C   0  0  0  0  0  0  0  0  0  0  0  0
    2.4269    8.4968    0.0000 C   0  0  0  0  0  0  0  0  0  0  0  0
    3.8894    8.8306    0.0000 S   0  0  0  0  0  0  0  0  0  0  0  0
  1  2  1  0  0  0  0
  2  3  2  0  0  0  0
  2  4  1  0  0  0  0
  4  5  1  0  0  0  0
  6  5  2  0  0  0  0
  5 26  1  0  0  0  0
  7  6  1  0  0  0  0
  7  8  1  0  0  0  0
 25  7  2  0  0  0  0
  8  9  1  0  0  0  0
  9 10  1  0  0  0  0
 10 11  1  0  0  0  0
 11 12  1  0  0  0  0
 12 13  2  0  0  0  0
 13 14  1  0  0  0  0
 14 15  1  0  0  0  0
 15 16  2  0  0  0  0
 15 17  2  0  0  0  0
 15 18  1  0  0  0  0
 19 18  2  0  0  0  0
 18 24  1  0  0  0  0
 20 19  1  0  0  0  0
 21 20  2  0  0  0  0
 21 22  1  0  0  0  0
 23 21  1  0  0  0  0
 24 23  2  0  0  0  0
 26 25  1  0  0  0  0
M  END
> <Inchi_key>
ZQHFZHPUZXNPMF-UHFFFAOYSA-N

> <Source>
Mulliner

> <ID>
HT0738

> <H_MFHB>
0

> <CAS>
100981-43-9

> <Cholestasis>


> <Name>
ebrotidine

> <Class>
0

$$$$