
  -INDIGO-08031710012D

 14 15  0  0  0  0  0  0  0  0999 V2000
   -0.9643    1.2990    0.0000 O   0  0  0  0  0  0  0  0  0  0  0  0
    0.5358    1.2990    0.0000 C   0  0  0  0  0  0  0  0  0  0  0  0
    1.2857    0.0000    0.0000 N   0  0  0  0  0  0  0  0  0  0  0  0
    1.2857    2.5981    0.0000 C   0  0  0  0  0  0  0  0  0  0  0  0
    0.5358    3.8971    0.0000 N   0  0  0  0  0  0  0  0  0  0  0  0
    2.7857    2.5981    0.0000 C   0  0  0  0  0  0  0  0  0  0  0  0
    3.5358    1.2990    0.0000 C   0  0  0  0  0  0  0  0  0  0  0  0
    2.7857    0.0000    0.0000 C   0  0  0  0  0  0  0  0  0  0  0  0
    5.0357    1.2990    0.0000 C   0  0  0  0  0  0  0  0  0  0  0  0
    5.7857    2.5981    0.0000 C   0  0  0  0  0  0  0  0  0  0  0  0
    5.7857    0.0000    0.0000 C   0  0  0  0  0  0  0  0  0  0  0  0
    7.2857    2.5981    0.0000 C   0  0  0  0  0  0  0  0  0  0  0  0
    7.2857    0.0000    0.0000 C   0  0  0  0  0  0  0  0  0  0  0  0
    8.0357    1.2990    0.0000 N   0  0  0  0  0  0  0  0  0  0  0  0
  1  2  2  0  0  0  0
  3  2  1  0  0  0  0
  2  4  1  0  0  0  0
  4  5  1  0  0  0  0
  4  6  2  0  0  0  0
  6  7  1  0  0  0  0
  7  8  2  0  0  0  0
  7  9  1  0  0  0  0
  8  3  1  0  0  0  0
 10  9  2  0  0  0  0
  9 11  1  0  0  0  0
 12 10  1  0  0  0  0
 11 13  2  0  0  0  0
 14 12  2  0  0  0  0
 13 14  1  0  0  0  0
M  END
> <Inchi_key>
RNLQIBCLLYYYFJ-UHFFFAOYSA-N

> <Source>
Mulliner

> <ID>
HT1086

> <H_MFHB>
0

> <CAS>
60719-84-8

> <Cholestasis>


> <Name>
inamrinone lactate;amrinone

> <Class>
0

$$$$