

  -INDIGO-08031710012D

 21 22  0  0  0  0  0  0  0  0999 V2000
    9.2956   -9.2309    0.0000 C   0  0  0  0  0  0  0  0  0  0  0  0
    9.2851   -7.7310    0.0000 C   0  0  0  0  0  0  0  0  0  0  0  0
   10.7852   -7.7206    0.0000 C   0  0  0  0  0  0  0  0  0  0  0  0
    9.2746   -6.2311    0.0000 C   0  0  0  0  0  0  0  0  0  0  0  0
    7.7853   -7.7415    0.0000 N   0  0  0  0  0  0  0  0  0  0  0  0
    7.0262   -6.4477    0.0000 C   0  0  0  0  0  0  0  0  0  0  0  0
    5.5261   -6.4582    0.0000 C   0  0  0  0  0  0  0  0  0  0  0  0
    4.7854   -7.7624    0.0000 O   0  0  0  0  0  0  0  0  0  0  0  0
    4.7672   -5.1644    0.0000 C   0  0  0  0  0  0  0  0  0  0  0  0
    3.2671   -5.1750    0.0000 O   0  0  0  0  0  0  0  0  0  0  0  0
    2.5080   -3.8812    0.0000 C   0  0  0  0  0  0  0  0  0  0  0  0
    3.1087   -2.5066    0.0000 N   0  0  0  0  0  0  0  0  0  0  0  0
    1.9869   -1.5107    0.0000 S   0  0  0  0  0  0  0  0  0  0  0  0
    0.6932   -2.2698    0.0000 N   0  0  0  0  0  0  0  0  0  0  0  0
    1.0152   -3.7348    0.0000 C   0  0  0  0  0  0  0  0  0  0  0  0
    0.0193   -4.8565    0.0000 N   0  0  0  0  0  0  0  0  0  0  0  0
   -1.4499   -4.5550    0.0000 C   0  0  0  0  0  0  0  0  0  0  0  0
   -2.4458   -5.6766    0.0000 C   0  0  0  0  0  0  0  0  0  0  0  0
   -1.9724   -7.0998    0.0000 O   0  0  0  0  0  0  0  0  0  0  0  0
   -0.5030   -7.4015    0.0000 C   0  0  0  0  0  0  0  0  0  0  0  0
    0.4929   -6.2798    0.0000 C   0  0  0  0  0  0  0  0  0  0  0  0
  1  2  1  0  0  0  0
  2  3  1  0  0  0  0
  2  4  1  0  0  0  0
  2  5  1  0  0  0  0
  5  6  1  0  0  0  0
  6  7  1  0  0  0  0
  7  8  1  0  0  0  0
  7  9  1  0  0  0  0
  9 10  1  0  0  0  0
 10 11  1  0  0  0  0
 12 11  2  0  0  0  0
 11 15  1  0  0  0  0
 13 12  1  0  0  0  0
 14 13  1  0  0  0  0
 15 14  2  0  0  0  0
 15 16  1  0  0  0  0
 17 16  1  0  0  0  0
 16 21  1  0  0  0  0
 18 17  1  0  0  0  0
 19 18  1  0  0  0  0
 20 19  1  0  0  0  0
 21 20  1  0  0  0  0
M  END
> <Inchi_key>
BLJRIMJGRPQVNF-UHFFFAOYSA-N

> <Source>
Mulliner

> <ID>
HT2064

> <H_MFHB>
0

> <CAS>
26921-17-5

> <Cholestasis>


> <Name>
timolol;timolol maleate

> <Class>
0


$$$$