

  -INDIGO-08031710012D

 40 41  0  0  0  0  0  0  0  0999 V2000
    7.3337    7.3338    0.0000 C   0  0  0  0  0  0  0  0  0  0  0  0
    7.3337    5.8339    0.0000 N   0  0  0  0  0  0  0  0  0  0  0  0
    6.0351    5.0839    0.0000 C   0  0  0  0  0  0  0  0  0  0  0  0
    4.7357    5.8339    0.0000 C   0  0  0  0  0  0  0  0  0  0  0  0
    3.4367    5.0839    0.0000 C   0  0  0  0  0  0  0  0  0  0  0  0
    2.1376    5.8339    0.0000 C   0  0  0  0  0  0  0  0  0  0  0  0
    0.8386    5.0839    0.0000 C   0  0  0  0  0  0  0  0  0  0  0  0
   -0.4604    5.8339    0.0000 C   0  0  0  0  0  0  0  0  0  0  0  0
   -1.7594    5.0839    0.0000 C   0  0  0  0  0  0  0  0  0  0  0  0
   -3.0584    5.8339    0.0000 C   0  0  0  0  0  0  0  0  0  0  0  0
   -4.3574    5.0839    0.0000 C   0  0  0  0  0  0  0  0  0  0  0  0
   -5.6564    5.8339    0.0000 C   0  0  0  0  0  0  0  0  0  0  0  0
   -6.9554    5.0839    0.0000 N   0  0  0  0  0  0  0  0  0  0  0  0
   -6.9554    3.5839    0.0000 C   0  0  0  0  0  0  0  0  0  0  0  0
   -8.2544    5.8339    0.0000 C   0  0  0  0  0  0  0  0  0  0  0  0
   -9.5534    5.0839    0.0000 O   0  0  0  0  0  0  0  0  0  0  0  0
   -8.2544    7.3338    0.0000 O   0  0  0  0  0  0  0  0  0  0  0  0
   -9.5534    8.0840    0.0000 C   0  0  0  0  0  0  0  0  0  0  0  0
  -10.8525    7.3338    0.0000 C   0  0  0  0  0  0  0  0  0  0  0  0
  -12.1519    8.0840    0.0000 C   0  0  0  0  0  0  0  0  0  0  0  0
  -12.1519    9.5840    0.0000 C   0  0  0  0  0  0  0  0  0  0  0  0
  -10.8525   10.3339    0.0000 C   0  0  0  0  0  0  0  0  0  0  0  0
   -9.5534    9.5840    0.0000 C   0  0  0  0  0  0  0  0  0  0  0  0
  -10.8525   11.8339    0.0000 N   0  0  0  0  0  0  0  0  0  0  0  0
   -9.3528   11.8339    0.0000 C   0  0  0  0  0  0  0  0  0  0  0  0
  -12.3526   11.8339    0.0000 C   0  0  0  0  0  0  0  0  0  0  0  0
  -10.8525   13.3339    0.0000 C   0  0  0  0  0  0  0  0  0  0  0  0
    8.6331    5.0839    0.0000 C   0  0  0  0  0  0  0  0  0  0  0  0
    8.6331    3.5839    0.0000 O   0  0  0  0  0  0  0  0  0  0  0  0
    9.9321    5.8339    0.0000 O   0  0  0  0  0  0  0  0  0  0  0  0
   11.2312    5.0839    0.0000 C   0  0  0  0  0  0  0  0  0  0  0  0
   11.2312    3.5839    0.0000 C   0  0  0  0  0  0  0  0  0  0  0  0
   12.5302    2.8339    0.0000 C   0  0  0  0  0  0  0  0  0  0  0  0
   13.8292    3.5839    0.0000 C   0  0  0  0  0  0  0  0  0  0  0  0
   13.8292    5.0839    0.0000 C   0  0  0  0  0  0  0  0  0  0  0  0
   12.5302    5.8339    0.0000 C   0  0  0  0  0  0  0  0  0  0  0  0
   15.1282    5.8339    0.0000 N   0  0  0  0  0  0  0  0  0  0  0  0
   14.3781    7.1331    0.0000 C   0  0  0  0  0  0  0  0  0  0  0  0
   15.8783    4.5350    0.0000 C   0  0  0  0  0  0  0  0  0  0  0  0
   16.4272    6.5838    0.0000 C   0  0  0  0  0  0  0  0  0  0  0  0
  1  2  1  0  0  0  0
  2  3  1  0  0  0  0
  2 28  1  0  0  0  0
  3  4  1  0  0  0  0
  4  5  1  0  0  0  0
  5  6  1  0  0  0  0
  6  7  1  0  0  0  0
  7  8  1  0  0  0  0
  8  9  1  0  0  0  0
  9 10  1  0  0  0  0
 10 11  1  0  0  0  0
 11 12  1  0  0  0  0
 12 13  1  0  0  0  0
 13 14  1  0  0  0  0
 13 15  1  0  0  0  0
 15 16  2  0  0  0  0
 15 17  1  0  0  0  0
 17 18  1  0  0  0  0
 19 18  2  0  0  0  0
 18 23  1  0  0  0  0
 20 19  1  0  0  0  0
 21 20  2  0  0  0  0
 22 21  1  0  0  0  0
 23 22  2  0  0  0  0
 22 24  1  0  0  0  0
 24 25  1  0  0  0  0
 24 26  1  0  0  0  0
 24 27  1  0  0  0  0
 28 29  2  0  0  0  0
 28 30  1  0  0  0  0
 30 31  1  0  0  0  0
 32 31  2  0  0  0  0
 31 36  1  0  0  0  0
 33 32  1  0  0  0  0
 34 33  2  0  0  0  0
 35 34  1  0  0  0  0
 36 35  2  0  0  0  0
 35 37  1  0  0  0  0
 37 38  1  0  0  0  0
 37 39  1  0  0  0  0
 37 40  1  0  0  0  0
M  CHG  2  24   1  37   1
M  END
> <Inchi_key>
RWZVPVOZTJJMNU-UHFFFAOYSA-N

> <Source>
Mulliner

> <ID>
HT0606

> <H_MFHB>
0

> <CAS>


> <Cholestasis>


> <Name>
demecarium

> <Class>
0


$$$$