
  -INDIGO-08031710012D

 23 26  0  0  0  0  0  0  0  0999 V2000
    1.2385   -2.2609    0.0000 O   0  0  0  0  0  0  0  0  0  0  0  0
    1.2423   -0.7609    0.0000 C   0  0  0  0  0  0  0  0  0  0  0  0
    2.7423   -0.7649    0.0000 C   0  0  0  0  0  0  0  0  0  0  0  0
    3.4891   -2.0659    0.0000 C   0  0  0  0  0  0  0  0  0  0  0  0
    4.9890   -2.0699    0.0000 N   0  0  0  0  0  0  0  0  0  0  0  0
    5.7425   -0.7728    0.0000 C   0  0  0  0  0  0  0  0  0  0  0  0
    7.2424   -0.7768    0.0000 C   0  0  0  0  0  0  0  0  0  0  0  0
    7.9890   -2.0778    0.0000 C   0  0  0  0  0  0  0  0  0  0  0  0
    7.2356   -3.3749    0.0000 C   0  0  0  0  0  0  0  0  0  0  0  0
    5.7356   -3.3709    0.0000 C   0  0  0  0  0  0  0  0  0  0  0  0
   -0.2575   -0.7570    0.0000 C   0  0  0  0  0  0  0  0  0  0  0  0
   -1.4558   -0.3837    0.0000 C   0  0  0  0  0  0  0  0  0  0  0  0
   -2.7451   -0.5833    0.0000 C   0  0  0  0  0  0  0  0  0  0  0  0
   -3.4961    0.5774    0.0000 C   0  0  0  0  0  0  0  0  0  0  0  0
   -1.6367   -1.1786    0.0000 C   0  0  0  0  0  0  0  0  0  0  0  0
   -2.0825   -2.4732    0.0000 C   0  0  0  0  0  0  0  0  0  0  0  0
   -3.1626   -2.0607    0.0000 C   0  0  0  0  0  0  0  0  0  0  0  0
    1.2464    0.7391    0.0000 C   0  0  0  0  0  0  0  0  0  0  0  0
   -0.0507    1.4925    0.0000 C   0  0  0  0  0  0  0  0  0  0  0  0
   -0.0466    2.9925    0.0000 C   0  0  0  0  0  0  0  0  0  0  0  0
    1.2543    3.7390    0.0000 C   0  0  0  0  0  0  0  0  0  0  0  0
    2.5515    2.9855    0.0000 C   0  0  0  0  0  0  0  0  0  0  0  0
    2.5474    1.4856    0.0000 C   0  0  0  0  0  0  0  0  0  0  0  0
  1  2  1  0  0  0  0
  2  3  1  0  0  0  0
  2 11  1  0  0  0  0
  2 18  1  0  0  0  0
  3  4  1  0  0  0  0
  4  5  1  0  0  0  0
  6  5  1  0  0  0  0
  5 10  1  0  0  0  0
  7  6  1  0  0  0  0
  8  7  1  0  0  0  0
  9  8  1  0  0  0  0
 10  9  1  0  0  0  0
 12 11  1  0  0  0  0
 11 15  1  0  0  0  0
 13 12  1  0  0  0  0
 13 14  1  0  0  0  0
 17 13  1  0  0  0  0
 14 15  1  0  0  0  0
 15 16  1  0  0  0  0
 16 17  2  0  0  0  0
 19 18  2  0  0  0  0
 18 23  1  0  0  0  0
 20 19  1  0  0  0  0
 21 20  2  0  0  0  0
 22 21  1  0  0  0  0
 23 22  2  0  0  0  0
M  END
> <Inchi_key>
YSXKPIUOCJLQIE-UHFFFAOYSA-N

> <Source>
Mulliner , Kotsampasakou

> <ID>
EK0065;HT0289

> <H_MFHB>
0

> <CAS>


> <Cholestasis>
0

> <Name>
biperiden hydrochloride;biperiden

> <Class>
0

$$$$