
  -INDIGO-08031710012D

 21 22  0  0  0  0  0  0  0  0999 V2000
   17.5576    2.3474    0.0000 C   0  0  0  0  0  0  0  0  0  0  0  0
   16.2586    3.0974    0.0000 O   0  0  0  0  0  0  0  0  0  0  0  0
   14.9594    2.3474    0.0000 C   0  0  0  0  0  0  0  0  0  0  0  0
   13.6604    3.0974    0.0000 C   0  0  0  0  0  0  0  0  0  0  0  0
   12.3614    2.3474    0.0000 O   0  0  0  0  0  0  0  0  0  0  0  0
   11.0625    3.0974    0.0000 C   0  0  0  0  0  0  0  0  0  0  0  0
   11.0625    4.5974    0.0000 C   0  0  0  0  0  0  0  0  0  0  0  0
    9.7632    5.3474    0.0000 N   0  0  0  0  0  0  0  0  0  0  0  0
    8.4642    4.5974    0.0000 C   0  0  0  0  0  0  0  0  0  0  0  0
    7.1653    5.3474    0.0000 N   0  0  0  0  0  0  0  0  0  0  0  0
    5.8663    4.5974    0.0000 S   0  0  0  0  0  0  0  0  0  0  0  0
    6.6163    3.2984    0.0000 O   0  0  0  0  0  0  0  0  0  0  0  0
    5.1163    5.8964    0.0000 O   0  0  0  0  0  0  0  0  0  0  0  0
    4.5673    3.8474    0.0000 C   0  0  0  0  0  0  0  0  0  0  0  0
    3.2681    4.5974    0.0000 C   0  0  0  0  0  0  0  0  0  0  0  0
    1.9691    3.8474    0.0000 C   0  0  0  0  0  0  0  0  0  0  0  0
    1.9691    2.3474    0.0000 C   0  0  0  0  0  0  0  0  0  0  0  0
    3.2681    1.5974    0.0000 C   0  0  0  0  0  0  0  0  0  0  0  0
    4.5673    2.3474    0.0000 C   0  0  0  0  0  0  0  0  0  0  0  0
    8.4642    3.0974    0.0000 N   0  0  0  0  0  0  0  0  0  0  0  0
    9.7632    2.3474    0.0000 C   0  0  0  0  0  0  0  0  0  0  0  0
  1  2  1  0  0  0  0
  2  3  1  0  0  0  0
  3  4  1  0  0  0  0
  4  5  1  0  0  0  0
  5  6  1  0  0  0  0
  7  6  2  0  0  0  0
  6 21  1  0  0  0  0
  8  7  1  0  0  0  0
  9  8  2  0  0  0  0
  9 10  1  0  0  0  0
 20  9  1  0  0  0  0
 10 11  1  0  0  0  0
 11 12  2  0  0  0  0
 11 13  2  0  0  0  0
 11 14  1  0  0  0  0
 15 14  2  0  0  0  0
 14 19  1  0  0  0  0
 16 15  1  0  0  0  0
 17 16  2  0  0  0  0
 18 17  1  0  0  0  0
 19 18  2  0  0  0  0
 21 20  2  0  0  0  0
M  END
> <Inchi_key>
QFWPJPIVLCBXFJ-UHFFFAOYSA-N

> <Source>
Mulliner

> <ID>
HT0998

> <H_MFHB>
0

> <CAS>


> <Cholestasis>


> <Name>
glycodiazine

> <Class>
0

$$$$