
  -INDIGO-08031710012D

 13 13  0  0  0  0  0  0  0  0999 V2000
    9.9001    0.3450    0.0000 N   0  0  0  0  0  0  0  0  0  0  0  0
    8.6011    1.0950    0.0000 C   0  0  0  0  0  0  0  0  0  0  0  0
    8.6011    2.5950    0.0000 O   0  0  0  0  0  0  0  0  0  0  0  0
    7.3021    0.3450    0.0000 N   0  0  0  0  0  0  0  0  0  0  0  0
    6.0029    1.0950    0.0000 C   0  0  0  0  0  0  0  0  0  0  0  0
    6.0029    2.5950    0.0000 O   0  0  0  0  0  0  0  0  0  0  0  0
    4.7041    0.3450    0.0000 C   0  0  0  0  0  0  0  0  0  0  0  0
    3.4051    1.0950    0.0000 C   0  0  0  0  0  0  0  0  0  0  0  0
    2.1059    0.3450    0.0000 C   0  0  0  0  0  0  0  0  0  0  0  0
    0.8069    1.0950    0.0000 C   0  0  0  0  0  0  0  0  0  0  0  0
    0.8069    2.5950    0.0000 C   0  0  0  0  0  0  0  0  0  0  0  0
    2.1059    3.3450    0.0000 C   0  0  0  0  0  0  0  0  0  0  0  0
    3.4051    2.5950    0.0000 C   0  0  0  0  0  0  0  0  0  0  0  0
  1  2  1  0  0  0  0
  2  3  2  0  0  0  0
  2  4  1  0  0  0  0
  4  5  1  0  0  0  0
  5  6  2  0  0  0  0
  5  7  1  0  0  0  0
  7  8  1  0  0  0  0
  9  8  2  0  0  0  0
  8 13  1  0  0  0  0
 10  9  1  0  0  0  0
 11 10  2  0  0  0  0
 12 11  1  0  0  0  0
 13 12  2  0  0  0  0
M  END
> <Inchi_key>
XPFRXWCVYUEORT-UHFFFAOYSA-N

> <Source>
Mulliner

> <ID>
HT1640

> <H_MFHB>
0

> <CAS>


> <Cholestasis>


> <Name>
phenacemide

> <Class>
0

$$$$