

  -INDIGO-08031710012D

 19 19  0  0  0  0  0  0  0  0999 V2000
    1.1783   -2.2122    0.0000 C   0  0  0  0  0  0  0  0  0  0  0  0
    2.0153   -0.9674    0.0000 N   0  0  0  0  0  0  0  0  0  0  0  0
    3.5118   -1.0699    0.0000 C   0  0  0  0  0  0  0  0  0  0  0  0
    1.3559    0.3798    0.0000 C   0  0  0  0  0  0  0  0  0  0  0  0
    2.1927    1.6246    0.0000 N   0  0  0  0  0  0  0  0  0  0  0  0
    3.6649    1.9130    0.0000 C   0  0  0  0  0  0  0  0  0  0  0  0
    3.6363    3.4127    0.0000 C   0  0  0  0  0  0  0  0  0  0  0  0
    2.1545    3.6452    0.0000 I   0  0  0  0  0  0  0  0  0  0  0  0
    4.9209    4.1871    0.0000 C   0  0  0  0  0  0  0  0  0  0  0  0
    6.2340    3.4618    0.0000 C   0  0  0  0  0  0  0  0  0  0  0  0
    7.5186    4.2363    0.0000 I   0  0  0  0  0  0  0  0  0  0  0  0
    6.2623    1.9621    0.0000 C   0  0  0  0  0  0  0  0  0  0  0  0
    7.5754    1.2368    0.0000 C   0  0  0  0  0  0  0  0  0  0  0  0
    8.8600    2.0112    0.0000 C   0  0  0  0  0  0  0  0  0  0  0  0
   10.1730    1.2859    0.0000 C   0  0  0  0  0  0  0  0  0  0  0  0
   11.4576    2.0604    0.0000 O   0  0  0  0  0  0  0  0  0  0  0  0
   10.2014   -0.2138    0.0000 O   0  0  0  0  0  0  0  0  0  0  0  0
    4.9777    1.1877    0.0000 C   0  0  0  0  0  0  0  0  0  0  0  0
    5.0061   -0.3121    0.0000 I   0  0  0  0  0  0  0  0  0  0  0  0
  1  2  1  0  0  0  0
  2  3  1  0  0  0  0
  2  4  1  0  0  0  0
  4  5  2  0  0  0  0
  5  6  1  0  0  0  0
  7  6  2  0  0  0  0
  6 18  1  0  0  0  0
  7  8  1  0  0  0  0
  9  7  1  0  0  0  0
 10  9  2  0  0  0  0
 10 11  1  0  0  0  0
 12 10  1  0  0  0  0
 12 13  1  0  0  0  0
 18 12  2  0  0  0  0
 13 14  1  0  0  0  0
 14 15  1  0  0  0  0
 15 16  2  0  0  0  0
 15 17  1  0  0  0  0
 18 19  1  0  0  0  0
M  END
> <Inchi_key>
YQNFBOJPTAXAKV-SOFYXZRVSA-N

> <Source>
Mulliner

> <ID>
HT1119

> <H_MFHB>
0

> <CAS>


> <Cholestasis>


> <Name>
ipodate

> <Class>
0


$$$$