
  -INDIGO-08031710012D

 30 32  0  0  0  0  0  0  0  0999 V2000
   14.9250    2.3816    0.0000 O   0  0  0  0  0  0  0  0  0  0  0  0
   14.1749    3.6806    0.0000 C   0  0  0  0  0  0  0  0  0  0  0  0
   14.9250    4.9796    0.0000 O   0  0  0  0  0  0  0  0  0  0  0  0
   12.6750    3.6806    0.0000 C   0  0  0  0  0  0  0  0  0  0  0  0
   11.9250    2.3816    0.0000 C   0  0  0  0  0  0  0  0  0  0  0  0
   10.4251    2.3816    0.0000 C   0  0  0  0  0  0  0  0  0  0  0  0
    9.6750    3.6806    0.0000 C   0  0  0  0  0  0  0  0  0  0  0  0
    8.1751    3.6806    0.0000 N   0  0  0  0  0  0  0  0  0  0  0  0
    7.4250    4.9796    0.0000 C   0  0  0  0  0  0  0  0  0  0  0  0
    8.1751    6.2788    0.0000 O   0  0  0  0  0  0  0  0  0  0  0  0
    5.9249    4.9796    0.0000 C   0  0  0  0  0  0  0  0  0  0  0  0
    5.1751    3.6806    0.0000 C   0  0  0  0  0  0  0  0  0  0  0  0
    3.6749    3.6806    0.0000 C   0  0  0  0  0  0  0  0  0  0  0  0
    2.9251    2.3816    0.0000 C   0  0  0  0  0  0  0  0  0  0  0  0
    1.4250    2.3816    0.0000 C   0  0  0  0  0  0  0  0  0  0  0  0
    0.6749    3.6806    0.0000 C   0  0  0  0  0  0  0  0  0  0  0  0
   -0.8250    3.6806    0.0000 O   0  0  0  0  0  0  0  0  0  0  0  0
    1.4250    4.9796    0.0000 C   0  0  0  0  0  0  0  0  0  0  0  0
    2.9251    4.9796    0.0000 C   0  0  0  0  0  0  0  0  0  0  0  0
    5.1751    6.2788    0.0000 N   0  0  0  0  0  0  0  0  0  0  0  0
    5.9249    7.5776    0.0000 C   0  0  0  0  0  0  0  0  0  0  0  0
    7.4250    7.5776    0.0000 O   0  0  0  0  0  0  0  0  0  0  0  0
    5.1751    8.8768    0.0000 C   0  0  0  0  0  0  0  0  0  0  0  0
    3.6749    8.8768    0.0000 C   0  0  0  0  0  0  0  0  0  0  0  0
    2.9251   10.1758    0.0000 C   0  0  0  0  0  0  0  0  0  0  0  0
    3.6749   11.4748    0.0000 C   0  0  0  0  0  0  0  0  0  0  0  0
    5.1751   11.4748    0.0000 C   0  0  0  0  0  0  0  0  0  0  0  0
    5.9249   10.1758    0.0000 C   0  0  0  0  0  0  0  0  0  0  0  0
   10.4251    4.9796    0.0000 C   0  0  0  0  0  0  0  0  0  0  0  0
   11.9250    4.9796    0.0000 C   0  0  0  0  0  0  0  0  0  0  0  0
  1  2  1  0  0  0  0
  2  3  2  0  0  0  0
  2  4  1  0  0  0  0
  5  4  2  0  0  0  0
  4 30  1  0  0  0  0
  6  5  1  0  0  0  0
  7  6  2  0  0  0  0
  7  8  1  0  0  0  0
 29  7  1  0  0  0  0
  8  9  1  0  0  0  0
  9 10  2  0  0  0  0
  9 11  1  0  0  0  0
 11 12  1  0  0  0  0
 11 20  1  0  0  0  0
 12 13  1  0  0  0  0
 14 13  2  0  0  0  0
 13 19  1  0  0  0  0
 15 14  1  0  0  0  0
 16 15  2  0  0  0  0
 16 17  1  0  0  0  0
 18 16  1  0  0  0  0
 19 18  2  0  0  0  0
 20 21  1  0  0  0  0
 21 22  2  0  0  0  0
 21 23  1  0  0  0  0
 24 23  2  0  0  0  0
 23 28  1  0  0  0  0
 25 24  1  0  0  0  0
 26 25  2  0  0  0  0
 27 26  1  0  0  0  0
 28 27  2  0  0  0  0
 30 29  2  0  0  0  0
M  END
> <Inchi_key>
SPPTWHFVYKCNNK-UHFFFAOYSA-N

> <Source>
Mulliner

> <ID>
HT0241

> <H_MFHB>
0

> <CAS>
37106-97-1

> <Cholestasis>


> <Name>
bentiromide

> <Class>
0

$$$$