

  -INDIGO-08031710012D

 15 16  0  0  0  0  0  0  0  0999 V2000
    0.8000    1.3856    0.0000 C   0  0  0  0  0  0  0  0  0  0  0  0
    1.5499    0.0866    0.0000 C   0  0  0  0  0  0  0  0  0  0  0  0
    0.8000   -1.2124    0.0000 C   0  0  0  0  0  0  0  0  0  0  0  0
    1.5499   -2.5115    0.0000 C   0  0  0  0  0  0  0  0  0  0  0  0
    0.8000   -3.8105    0.0000 O   0  0  0  0  0  0  0  0  0  0  0  0
    3.0501   -2.5115    0.0000 N   0  0  0  0  0  0  0  0  0  0  0  0
    3.8000   -3.8105    0.0000 O   0  0  0  0  0  0  0  0  0  0  0  0
    3.8000   -1.2124    0.0000 C   0  0  0  0  0  0  0  0  0  0  0  0
    3.0501    0.0866    0.0000 C   0  0  0  0  0  0  0  0  0  0  0  0
    5.3000   -1.2124    0.0000 C   0  0  0  0  0  0  0  0  0  0  0  0
    6.0501   -2.5115    0.0000 C   0  0  0  0  0  0  0  0  0  0  0  0
    7.5501   -2.5115    0.0000 C   0  0  0  0  0  0  0  0  0  0  0  0
    8.3000   -1.2124    0.0000 C   0  0  0  0  0  0  0  0  0  0  0  0
    7.5501    0.0866    0.0000 C   0  0  0  0  0  0  0  0  0  0  0  0
    6.0501    0.0866    0.0000 C   0  0  0  0  0  0  0  0  0  0  0  0
  1  2  1  0  0  0  0
  3  2  2  0  0  0  0
  2  9  1  0  0  0  0
  4  3  1  0  0  0  0
  4  5  2  0  0  0  0
  6  4  1  0  0  0  0
  6  7  1  0  0  0  0
  8  6  1  0  0  0  0
  9  8  2  0  0  0  0
  8 10  1  0  0  0  0
 11 10  1  0  0  0  0
 10 15  1  0  0  0  0
 12 11  1  0  0  0  0
 13 12  1  0  0  0  0
 14 13  1  0  0  0  0
 15 14  1  0  0  0  0
M  END
> <Inchi_key>
SCKYRAXSEDYPSA-UHFFFAOYSA-N

> <Source>
Mulliner , Kotsampasakou

> <ID>
EK0120;HT0480

> <H_MFHB>
0

> <CAS>


> <Cholestasis>
0

> <Name>
ciclopirox

> <Class>
0


$$$$