
  -INDIGO-08031710012D

 28 29  0  0  0  0  0  0  0  0999 V2000
    5.5426   -1.6426    0.0000 C   0  0  0  0  0  0  0  0  0  0  0  0
    5.5482   -3.1426    0.0000 C   0  0  0  0  0  0  0  0  0  0  0  0
    4.4916   -4.2072    0.0000 C   0  0  0  0  0  0  0  0  0  0  0  0
    2.9917   -4.2129    0.0000 N   0  0  0  0  0  0  0  0  0  0  0  0
    2.2367   -2.9167    0.0000 C   0  0  0  0  0  0  0  0  0  0  0  0
    2.9818   -1.6149    0.0000 O   0  0  0  0  0  0  0  0  0  0  0  0
    0.7368   -2.9224    0.0000 C   0  0  0  0  0  0  0  0  0  0  0  0
   -0.0082   -4.2242    0.0000 N   0  0  0  0  0  0  0  0  0  0  0  0
   -1.5084   -4.2299    0.0000 O   0  0  0  0  0  0  0  0  0  0  0  0
   -2.2534   -5.5318    0.0000 C   0  0  0  0  0  0  0  0  0  0  0  0
   -3.5553   -4.7867    0.0000 C   0  0  0  0  0  0  0  0  0  0  0  0
   -0.9516   -6.2770    0.0000 C   0  0  0  0  0  0  0  0  0  0  0  0
   -2.9984   -6.8337    0.0000 C   0  0  0  0  0  0  0  0  0  0  0  0
   -2.2435   -8.1299    0.0000 O   0  0  0  0  0  0  0  0  0  0  0  0
   -4.4984   -6.8394    0.0000 O   0  0  0  0  0  0  0  0  0  0  0  0
   -0.0181   -1.6262    0.0000 C   0  0  0  0  0  0  0  0  0  0  0  0
   -1.5106   -1.4751    0.0000 C   0  0  0  0  0  0  0  0  0  0  0  0
   -1.8279   -0.0090    0.0000 S   0  0  0  0  0  0  0  0  0  0  0  0
   -0.5317    0.7458    0.0000 C   0  0  0  0  0  0  0  0  0  0  0  0
   -0.3805    2.2382    0.0000 N   0  0  0  0  0  0  0  0  0  0  0  0
    0.5867   -0.2536    0.0000 N   0  0  0  0  0  0  0  0  0  0  0  0
    5.5564   -5.2638    0.0000 C   0  0  0  0  0  0  0  0  0  0  0  0
    5.5620   -6.7639    0.0000 O   0  0  0  0  0  0  0  0  0  0  0  0
    6.6130   -4.1992    0.0000 N   0  0  0  0  0  0  0  0  0  0  0  0
    8.1129   -4.1936    0.0000 S   0  0  0  0  0  0  0  0  0  0  0  0
    8.1073   -2.6934    0.0000 O   0  0  0  0  0  0  0  0  0  0  0  0
    8.1185   -5.6935    0.0000 O   0  0  0  0  0  0  0  0  0  0  0  0
    9.6129   -4.1879    0.0000 O   0  0  0  0  0  0  0  0  0  0  0  0
  1  2  1  0  0  0  0
  3  2  1  0  0  0  0
  2 24  1  0  0  0  0
  3  4  1  0  0  0  0
 22  3  1  0  0  0  0
  4  5  1  0  0  0  0
  5  6  2  0  0  0  0
  5  7  1  0  0  0  0
  7  8  2  0  0  0  0
  7 16  1  0  0  0  0
  8  9  1  0  0  0  0
  9 10  1  0  0  0  0
 10 11  1  0  0  0  0
 10 12  1  0  0  0  0
 10 13  1  0  0  0  0
 13 14  2  0  0  0  0
 13 15  1  0  0  0  0
 17 16  2  0  0  0  0
 16 21  1  0  0  0  0
 18 17  1  0  0  0  0
 19 18  1  0  0  0  0
 19 20  1  0  0  0  0
 21 19  2  0  0  0  0
 22 23  2  0  0  0  0
 24 22  1  0  0  0  0
 24 25  1  0  0  0  0
 25 26  2  0  0  0  0
 25 27  2  0  0  0  0
 25 28  1  0  0  0  0
M  END
> <Inchi_key>
WZPBZJONDBGPKJ-CAOOACKPSA-N, WZPBZJONDBGPKJ-IUXPMGMMSA-N

> <Source>
Mulliner,  Kotsampasakou

> <ID>
EK0050;HT0220

> <H_MFHB>
0

> <CAS>
80581-86-8;78110-38-0

> <Cholestasis>
0

> <Name>
aztreonam;aztreonam z-isomer

> <Class>
0

$$$$