

  -INDIGO-08031710012D

 28 31  0  0  0  0  0  0  0  0999 V2000
    0.8035    0.4639    0.0000 C   0  0  0  0  0  0  0  0  0  0  0  0
    0.0537   -0.8351    0.0000 C   0  0  0  0  0  0  0  0  0  0  0  0
   -1.4465   -0.8351    0.0000 C   0  0  0  0  0  0  0  0  0  0  0  0
   -2.1963    0.4639    0.0000 C   0  0  0  0  0  0  0  0  0  0  0  0
   -3.6964    0.4639    0.0000 O   0  0  0  0  0  0  0  0  0  0  0  0
   -1.4465    1.7630    0.0000 O   0  0  0  0  0  0  0  0  0  0  0  0
   -2.1963   -2.1341    0.0000 C   0  0  0  0  0  0  0  0  0  0  0  0
   -3.6964   -2.1341    0.0000 C   0  0  0  0  0  0  0  0  0  0  0  0
   -4.4465   -3.4332    0.0000 C   0  0  0  0  0  0  0  0  0  0  0  0
   -5.9464   -3.4332    0.0000 F   0  0  0  0  0  0  0  0  0  0  0  0
   -3.6964   -4.7322    0.0000 C   0  0  0  0  0  0  0  0  0  0  0  0
   -2.1963   -4.7322    0.0000 C   0  0  0  0  0  0  0  0  0  0  0  0
   -1.4465   -3.4332    0.0000 C   0  0  0  0  0  0  0  0  0  0  0  0
    0.0537   -3.4332    0.0000 N   0  0  0  0  0  0  0  0  0  0  0  0
    0.8035   -2.1341    0.0000 C   0  0  0  0  0  0  0  0  0  0  0  0
    2.3036   -2.1341    0.0000 C   0  0  0  0  0  0  0  0  0  0  0  0
    3.0537   -3.4332    0.0000 C   0  0  0  0  0  0  0  0  0  0  0  0
    4.5536   -3.4332    0.0000 C   0  0  0  0  0  0  0  0  0  0  0  0
    5.3037   -2.1341    0.0000 C   0  0  0  0  0  0  0  0  0  0  0  0
    4.5536   -0.8351    0.0000 C   0  0  0  0  0  0  0  0  0  0  0  0
    3.0537   -0.8351    0.0000 C   0  0  0  0  0  0  0  0  0  0  0  0
    6.8036   -2.1341    0.0000 C   0  0  0  0  0  0  0  0  0  0  0  0
    7.5536   -0.8351    0.0000 C   0  0  0  0  0  0  0  0  0  0  0  0
    9.0535   -0.8351    0.0000 C   0  0  0  0  0  0  0  0  0  0  0  0
    9.8036   -2.1341    0.0000 C   0  0  0  0  0  0  0  0  0  0  0  0
    9.0535   -3.4332    0.0000 C   0  0  0  0  0  0  0  0  0  0  0  0
    7.5536   -3.4332    0.0000 C   0  0  0  0  0  0  0  0  0  0  0  0
    6.8036   -4.7322    0.0000 F   0  0  0  0  0  0  0  0  0  0  0  0
  1  2  1  0  0  0  0
  3  2  2  0  0  0  0
  2 15  1  0  0  0  0
  3  4  1  0  0  0  0
  7  3  1  0  0  0  0
  4  5  2  0  0  0  0
  4  6  1  0  0  0  0
  8  7  2  0  0  0  0
  7 13  1  0  0  0  0
  9  8  1  0  0  0  0
  9 10  1  0  0  0  0
 11  9  2  0  0  0  0
 12 11  1  0  0  0  0
 13 12  2  0  0  0  0
 14 13  1  0  0  0  0
 15 14  2  0  0  0  0
 15 16  1  0  0  0  0
 17 16  2  0  0  0  0
 16 21  1  0  0  0  0
 18 17  1  0  0  0  0
 19 18  2  0  0  0  0
 20 19  1  0  0  0  0
 19 22  1  0  0  0  0
 21 20  2  0  0  0  0
 23 22  2  0  0  0  0
 22 27  1  0  0  0  0
 24 23  1  0  0  0  0
 25 24  2  0  0  0  0
 26 25  1  0  0  0  0
 27 26  2  0  0  0  0
 27 28  1  0  0  0  0
M  END
> <Inchi_key>
PHEZJEYUWHETKO-UHFFFAOYSA-N

> <Source>
Mulliner

> <ID>
HT0302

> <H_MFHB>
0

> <CAS>
96187-53-0

> <Cholestasis>


> <Name>
brequinar

> <Class>
0


$$$$