
  -INDIGO-08031710012D

 14 15  0  0  0  0  0  0  0  0999 V2000
    0.1189    0.3659    0.0000 C   0  0  0  0  0  0  0  0  0  0  0  0
    1.3324   -0.5157    0.0000 N   0  0  0  0  0  0  0  0  0  0  0  0
    1.3324   -2.0157    0.0000 C   0  0  0  0  0  0  0  0  0  0  0  0
    0.1189   -2.8974    0.0000 O   0  0  0  0  0  0  0  0  0  0  0  0
    2.7590   -2.4793    0.0000 C   0  0  0  0  0  0  0  0  0  0  0  0
    3.6407   -1.2657    0.0000 C   0  0  0  0  0  0  0  0  0  0  0  0
    2.7590   -0.0522    0.0000 C   0  0  0  0  0  0  0  0  0  0  0  0
    3.2225    1.3744    0.0000 O   0  0  0  0  0  0  0  0  0  0  0  0
    5.1407   -1.2657    0.0000 C   0  0  0  0  0  0  0  0  0  0  0  0
    5.8907   -2.5648    0.0000 C   0  0  0  0  0  0  0  0  0  0  0  0
    7.3907   -2.5648    0.0000 C   0  0  0  0  0  0  0  0  0  0  0  0
    8.1407   -1.2657    0.0000 C   0  0  0  0  0  0  0  0  0  0  0  0
    7.3907    0.0333    0.0000 C   0  0  0  0  0  0  0  0  0  0  0  0
    5.8907    0.0333    0.0000 C   0  0  0  0  0  0  0  0  0  0  0  0
  1  2  1  0  0  0  0
  3  2  1  0  0  0  0
  2  7  1  0  0  0  0
  3  4  2  0  0  0  0
  5  3  1  0  0  0  0
  6  5  1  0  0  0  0
  7  6  1  0  0  0  0
  6  9  1  0  0  0  0
  7  8  2  0  0  0  0
 10  9  2  0  0  0  0
  9 14  1  0  0  0  0
 11 10  1  0  0  0  0
 12 11  2  0  0  0  0
 13 12  1  0  0  0  0
 14 13  2  0  0  0  0
M  END
> <Inchi_key>
WLWFNJKHKGIJNW-UHFFFAOYSA-N

> <Source>
Mulliner

> <ID>
HT0024

> <H_MFHB>
0

> <CAS>


> <Cholestasis>


> <Name>
1-13c-caprylic acid

> <Class>
0

$$$$