

  -INDIGO-08031710012D

 10 10  0  0  0  0  0  0  0  0999 V2000
    8.5765   -2.8981    0.0000 C   0  0  0  0  0  0  0  0  0  0  0  0
    7.2775   -3.6481    0.0000 N   0  0  0  0  0  0  0  0  0  0  0  0
    5.9786   -2.8981    0.0000 C   0  0  0  0  0  0  0  0  0  0  0  0
    4.6795   -3.6481    0.0000 C   0  0  0  0  0  0  0  0  0  0  0  0
    3.3804   -2.8981    0.0000 C   0  0  0  0  0  0  0  0  0  0  0  0
    2.0813   -3.6481    0.0000 C   0  0  0  0  0  0  0  0  0  0  0  0
    0.7823   -2.8981    0.0000 C   0  0  0  0  0  0  0  0  0  0  0  0
    0.7823   -1.3981    0.0000 C   0  0  0  0  0  0  0  0  0  0  0  0
    2.0813   -0.6481    0.0000 C   0  0  0  0  0  0  0  0  0  0  0  0
    3.3804   -1.3981    0.0000 N   0  0  0  0  0  0  0  0  0  0  0  0
  1  2  1  0  0  0  0
  2  3  1  0  0  0  0
  3  4  1  0  0  0  0
  4  5  1  0  0  0  0
  6  5  2  0  0  0  0
  5 10  1  0  0  0  0
  7  6  1  0  0  0  0
  8  7  2  0  0  0  0
  9  8  1  0  0  0  0
 10  9  2  0  0  0  0
M  END
> <Inchi_key>
UUQMNUMQCIQDMZ-UHFFFAOYSA-N

> <Source>
Mulliner

> <ID>
HT0268

> <H_MFHB>
0

> <CAS>


> <Cholestasis>


> <Name>
betahistine

> <Class>
0


$$$$