

  -INDIGO-08031710012D

 29 31  0  0  0  0  0  0  0  0999 V2000
   -1.5011   -1.5011    0.0000 C   0  0  0  0  0  0  0  0  0  0  0  0
   -1.5011   -3.0012    0.0000 C   0  0  0  0  0  0  0  0  0  0  0  0
   -0.2022   -3.7511    0.0000 O   0  0  0  0  0  0  0  0  0  0  0  0
   -0.2022   -5.2511    0.0000 C   0  0  0  0  0  0  0  0  0  0  0  0
   -1.5011   -6.0012    0.0000 C   0  0  0  0  0  0  0  0  0  0  0  0
   -1.5011   -7.5011    0.0000 C   0  0  0  0  0  0  0  0  0  0  0  0
   -2.8001   -8.2511    0.0000 N   0  0  0  0  0  0  0  0  0  0  0  0
   -0.2022   -8.2511    0.0000 C   0  0  0  0  0  0  0  0  0  0  0  0
    1.0971   -7.5011    0.0000 C   0  0  0  0  0  0  0  0  0  0  0  0
    1.0971   -6.0012    0.0000 C   0  0  0  0  0  0  0  0  0  0  0  0
    2.3960   -5.2511    0.0000 C   0  0  0  0  0  0  0  0  0  0  0  0
    2.3960   -3.7511    0.0000 O   0  0  0  0  0  0  0  0  0  0  0  0
    3.6950   -6.0012    0.0000 N   0  0  0  0  0  0  0  0  0  0  0  0
    4.9942   -5.2511    0.0000 C   0  0  0  0  0  0  0  0  0  0  0  0
    4.9942   -3.7511    0.0000 C   0  0  0  0  0  0  0  0  0  0  0  0
    6.2932   -3.0012    0.0000 C   0  0  0  0  0  0  0  0  0  0  0  0
    7.5922   -3.7511    0.0000 N   0  0  0  0  0  0  0  0  0  0  0  0
    8.8911   -3.0012    0.0000 C   0  0  0  0  0  0  0  0  0  0  0  0
   10.1904   -3.7511    0.0000 C   0  0  0  0  0  0  0  0  0  0  0  0
   10.1904   -5.2511    0.0000 C   0  0  0  0  0  0  0  0  0  0  0  0
   11.4893   -6.0012    0.0000 C   0  0  0  0  0  0  0  0  0  0  0  0
   12.7883   -5.2511    0.0000 C   0  0  0  0  0  0  0  0  0  0  0  0
   12.7883   -3.7511    0.0000 C   0  0  0  0  0  0  0  0  0  0  0  0
   11.4893   -3.0012    0.0000 C   0  0  0  0  0  0  0  0  0  0  0  0
    7.5922   -5.2511    0.0000 C   0  0  0  0  0  0  0  0  0  0  0  0
    6.2932   -6.0012    0.0000 C   0  0  0  0  0  0  0  0  0  0  0  0
   -0.2022   -9.7511    0.0000 N   0  0  0  0  0  0  0  0  0  0  0  0
    1.0971  -10.5011    0.0000 O   0  0  0  0  0  0  0  0  0  0  0  0
   -1.5011  -10.5011    0.0000 O   0  0  0  0  0  0  0  0  0  0  0  0
  1  2  1  0  0  0  0
  2  3  1  0  0  0  0
  3  4  1  0  0  0  0
  5  4  2  0  0  0  0
  4 10  1  0  0  0  0
  6  5  1  0  0  0  0
  6  7  1  0  0  0  0
  8  6  2  0  0  0  0
  9  8  1  0  0  0  0
  8 27  1  0  0  0  0
 10  9  2  0  0  0  0
 10 11  1  0  0  0  0
 11 12  2  0  0  0  0
 11 13  1  0  0  0  0
 13 14  1  0  0  0  0
 15 14  1  0  0  0  0
 14 26  1  0  0  0  0
 16 15  1  0  0  0  0
 17 16  1  0  0  0  0
 17 18  1  0  0  0  0
 25 17  1  0  0  0  0
 18 19  1  0  0  0  0
 20 19  1  0  0  0  0
 19 24  1  0  0  0  0
 21 20  1  0  0  0  0
 22 21  1  0  0  0  0
 23 22  2  0  0  0  0
 24 23  1  0  0  0  0
 26 25  1  0  0  0  0
 27 28  2  0  0  0  0
 27 29  1  0  0  0  0
M  CHG  2  27   1  29  -1
M  END
> <Inchi_key>
ZDLBNXXKDMLZMF-UHFFFAOYSA-N

> <Source>
Mulliner

> <ID>
HT0490

> <H_MFHB>
0

> <CAS>


> <Cholestasis>


> <Name>
cinitapride

> <Class>
0


$$$$