

  -INDIGO-08031710012D

  8  7  0  0  0  0  0  0  0  0999 V2000
    8.1594   -2.1863    0.0000 C   0  0  0  0  0  0  0  0  0  0  0  0
    6.8603   -1.4363    0.0000 C   0  0  0  0  0  0  0  0  0  0  0  0
    5.5613   -2.1863    0.0000 C   0  0  0  0  0  0  0  0  0  0  0  0
    4.2623   -1.4363    0.0000 C   0  0  0  0  0  0  0  0  0  0  0  0
    2.9632   -2.1863    0.0000 C   0  0  0  0  0  0  0  0  0  0  0  0
    1.6642   -1.4363    0.0000 C   0  0  0  0  0  0  0  0  0  0  0  0
    1.6642    0.0637    0.0000 C   0  0  0  0  0  0  0  0  0  0  0  0
    0.3651   -2.1863    0.0000 N   0  0  0  0  0  0  0  0  0  0  0  0
  1  2  1  0  0  0  0
  2  3  1  0  0  0  0
  3  4  1  0  0  0  0
  4  5  1  0  0  0  0
  5  6  1  0  0  0  0
  6  7  1  0  0  0  0
  6  8  1  0  0  0  0
M  END
> <Inchi_key>
VSRBKQFNFZQRBM-UHFFFAOYSA-N

> <Source>
Mulliner

> <ID>
HT2473

> <H_MFHB>
0

> <CAS>


> <Cholestasis>


> <Name>


> <Class>
0


$$$$