

  -INDIGO-08031710012D

 29 32  0  0  0  0  0  0  0  0999 V2000
    0.4998    2.6231    0.0000 C   0  0  0  0  0  0  0  0  0  0  0  0
    1.8011    1.8772    0.0000 C   0  0  0  0  0  0  0  0  0  0  0  0
    3.1696    2.4915    0.0000 C   0  0  0  0  0  0  0  0  0  0  0  0
    4.1767    1.3800    0.0000 C   0  0  0  0  0  0  0  0  0  0  0  0
    5.6767    1.3846    0.0000 C   0  0  0  0  0  0  0  0  0  0  0  0
    6.4226    2.6860    0.0000 C   0  0  0  0  0  0  0  0  0  0  0  0
    7.9228    2.6907    0.0000 C   0  0  0  0  0  0  0  0  0  0  0  0
    8.6687    3.9921    0.0000 F   0  0  0  0  0  0  0  0  0  0  0  0
    8.6768    1.3940    0.0000 C   0  0  0  0  0  0  0  0  0  0  0  0
   10.1767    1.3987    0.0000 C   0  0  0  0  0  0  0  0  0  0  0  0
   10.9308    0.1020    0.0000 C   0  0  0  0  0  0  0  0  0  0  0  0
   12.4307    0.1067    0.0000 O   0  0  0  0  0  0  0  0  0  0  0  0
   10.1848   -1.1994    0.0000 C   0  0  0  0  0  0  0  0  0  0  0  0
    8.6849   -1.2041    0.0000 C   0  0  0  0  0  0  0  0  0  0  0  0
    7.9309    0.0926    0.0000 C   0  0  0  0  0  0  0  0  0  0  0  0
    7.1847   -1.2087    0.0000 C   0  0  0  0  0  0  0  0  0  0  0  0
    6.4307    0.0880    0.0000 C   0  0  0  0  0  0  0  0  0  0  0  0
    4.9308    0.0833    0.0000 F   0  0  0  0  0  0  0  0  0  0  0  0
    5.6848   -1.2134    0.0000 C   0  0  0  0  0  0  0  0  0  0  0  0
    6.4388   -2.5101    0.0000 O   0  0  0  0  0  0  0  0  0  0  0  0
    4.1848   -1.2181    0.0000 C   0  0  0  0  0  0  0  0  0  0  0  0
    3.4308    0.0786    0.0000 C   0  0  0  0  0  0  0  0  0  0  0  0
    2.5743   -1.1528    0.0000 C   0  0  0  0  0  0  0  0  0  0  0  0
    1.9626    0.3859    0.0000 C   0  0  0  0  0  0  0  0  0  0  0  0
    1.4788   -1.0339    0.0000 O   0  0  0  0  0  0  0  0  0  0  0  0
    0.4819    0.1466    0.0000 C   0  0  0  0  0  0  0  0  0  0  0  0
   -0.4658    1.3094    0.0000 O   0  0  0  0  0  0  0  0  0  0  0  0
   -0.0514   -1.2554    0.0000 C   0  0  0  0  0  0  0  0  0  0  0  0
   -1.5322   -1.4947    0.0000 O   0  0  0  0  0  0  0  0  0  0  0  0
  1  2  1  0  0  0  0
  3  2  1  0  0  0  0
  2 24  1  0  0  0  0
  4  3  1  0  0  0  0
  5  4  1  0  0  0  0
  4 22  1  0  0  0  0
  6  5  1  0  0  0  0
  5 17  1  0  0  0  0
  7  6  1  0  0  0  0
  7  8  1  0  0  0  0
  9  7  1  0  0  0  0
 10  9  2  0  0  0  0
  9 15  1  0  0  0  0
 11 10  1  0  0  0  0
 11 12  2  0  0  0  0
 13 11  1  0  0  0  0
 14 13  2  0  0  0  0
 15 14  1  0  0  0  0
 15 16  1  0  0  0  0
 17 15  1  0  0  0  0
 17 18  1  0  0  0  0
 19 17  1  0  0  0  0
 19 20  1  0  0  0  0
 21 19  1  0  0  0  0
 22 21  1  0  0  0  0
 22 23  1  0  0  0  0
 24 22  1  0  0  0  0
 24 25  1  0  0  0  0
 24 26  1  0  0  0  0
 26 27  2  0  0  0  0
 26 28  1  0  0  0  0
 28 29  1  0  0  0  0
M  END
> <Inchi_key>
WXURHACBFYSXBI-UHFFFAOYSA-N

> <Source>
Mulliner

> <ID>
HT0660

> <H_MFHB>
0

> <CAS>


> <Cholestasis>


> <Name>
diflorasone

> <Class>
0


$$$$