

  -INDIGO-08031710012D

 22 23  0  0  0  0  0  0  0  0999 V2000
   15.2601   -1.2253    0.0000 C   0  0  0  0  0  0  0  0  0  0  0  0
   13.9610   -1.9753    0.0000 C   0  0  0  0  0  0  0  0  0  0  0  0
   14.7111   -3.2743    0.0000 C   0  0  0  0  0  0  0  0  0  0  0  0
   13.2112   -0.6763    0.0000 C   0  0  0  0  0  0  0  0  0  0  0  0
   12.6621   -2.7253    0.0000 N   0  0  0  0  0  0  0  0  0  0  0  0
   11.3630   -1.9753    0.0000 C   0  0  0  0  0  0  0  0  0  0  0  0
   10.0639   -2.7253    0.0000 C   0  0  0  0  0  0  0  0  0  0  0  0
   10.0639   -4.2253    0.0000 O   0  0  0  0  0  0  0  0  0  0  0  0
    8.7648   -1.9753    0.0000 C   0  0  0  0  0  0  0  0  0  0  0  0
    7.4660   -2.7253    0.0000 O   0  0  0  0  0  0  0  0  0  0  0  0
    6.1669   -1.9753    0.0000 C   0  0  0  0  0  0  0  0  0  0  0  0
    6.1669   -0.4753    0.0000 C   0  0  0  0  0  0  0  0  0  0  0  0
    4.8678    0.2747    0.0000 C   0  0  0  0  0  0  0  0  0  0  0  0
    3.5689   -0.4753    0.0000 C   0  0  0  0  0  0  0  0  0  0  0  0
    3.5689   -1.9753    0.0000 C   0  0  0  0  0  0  0  0  0  0  0  0
    2.2698   -2.7253    0.0000 C   0  0  0  0  0  0  0  0  0  0  0  0
    2.2698   -4.2253    0.0000 C   0  0  0  0  0  0  0  0  0  0  0  0
    0.9707   -4.9753    0.0000 O   0  0  0  0  0  0  0  0  0  0  0  0
    3.5689   -4.9753    0.0000 C   0  0  0  0  0  0  0  0  0  0  0  0
    3.5689   -6.4753    0.0000 O   0  0  0  0  0  0  0  0  0  0  0  0
    4.8678   -4.2253    0.0000 C   0  0  0  0  0  0  0  0  0  0  0  0
    4.8678   -2.7253    0.0000 C   0  0  0  0  0  0  0  0  0  0  0  0
  1  2  1  0  0  0  0
  2  3  1  0  0  0  0
  2  4  1  0  0  0  0
  2  5  1  0  0  0  0
  5  6  1  0  0  0  0
  6  7  1  0  0  0  0
  7  8  1  0  0  0  0
  7  9  1  0  0  0  0
  9 10  1  0  0  0  0
 10 11  1  0  0  0  0
 12 11  2  0  0  0  0
 11 22  1  0  0  0  0
 13 12  1  0  0  0  0
 14 13  2  0  0  0  0
 15 14  1  0  0  0  0
 16 15  1  0  0  0  0
 15 22  2  0  0  0  0
 17 16  1  0  0  0  0
 17 18  1  0  0  0  0
 19 17  1  0  0  0  0
 19 20  1  0  0  0  0
 21 19  1  0  0  0  0
 22 21  1  0  0  0  0
M  END
> <Inchi_key>
VWPOSFSPZNDTMJ-UHFFFAOYSA-N

> <Source>
Mulliner , Kotsampasakou

> <ID>
EK0366;HT1450

> <H_MFHB>
0

> <CAS>


> <Cholestasis>
0

> <Name>
nadolol

> <Class>
0


$$$$