

  -INDIGO-08031710012D

 31 32  0  0  0  0  0  0  0  0999 V2000
    4.7756    8.4166    0.0000 C   0  0  0  0  0  0  0  0  0  0  0  0
    4.0255    7.1175    0.0000 C   0  0  0  0  0  0  0  0  0  0  0  0
    4.7756    5.8185    0.0000 C   0  0  0  0  0  0  0  0  0  0  0  0
    6.0744    6.5685    0.0000 C   0  0  0  0  0  0  0  0  0  0  0  0
    5.5254    4.5194    0.0000 C   0  0  0  0  0  0  0  0  0  0  0  0
    3.4765    5.0684    0.0000 C   0  0  0  0  0  0  0  0  0  0  0  0
    2.1774    5.8185    0.0000 O   0  0  0  0  0  0  0  0  0  0  0  0
    3.4765    3.5686    0.0000 O   0  0  0  0  0  0  0  0  0  0  0  0
    2.1774    2.8185    0.0000 C   0  0  0  0  0  0  0  0  0  0  0  0
    0.8785    3.5686    0.0000 C   0  0  0  0  0  0  0  0  0  0  0  0
   -0.4206    2.8185    0.0000 C   0  0  0  0  0  0  0  0  0  0  0  0
   -1.7197    3.5686    0.0000 C   0  0  0  0  0  0  0  0  0  0  0  0
   -0.4206    1.3186    0.0000 C   0  0  0  0  0  0  0  0  0  0  0  0
    0.8785    0.5685    0.0000 C   0  0  0  0  0  0  0  0  0  0  0  0
    0.8785   -0.9316    0.0000 C   0  0  0  0  0  0  0  0  0  0  0  0
    2.1774   -1.6815    0.0000 C   0  0  0  0  0  0  0  0  0  0  0  0
    3.4765   -0.9316    0.0000 C   0  0  0  0  0  0  0  0  0  0  0  0
    4.7756   -1.6815    0.0000 C   0  0  0  0  0  0  0  0  0  0  0  0
    3.4765    0.5685    0.0000 C   0  0  0  0  0  0  0  0  0  0  0  0
    4.7756    1.3186    0.0000 C   0  0  0  0  0  0  0  0  0  0  0  0
    6.0744    0.5685    0.0000 C   0  0  0  0  0  0  0  0  0  0  0  0
    7.3735    1.3186    0.0000 C   0  0  0  0  0  0  0  0  0  0  0  0
    8.6726    0.5685    0.0000 O   0  0  0  0  0  0  0  0  0  0  0  0
    7.3735    2.8185    0.0000 C   0  0  0  0  0  0  0  0  0  0  0  0
    8.6726    3.5686    0.0000 C   0  0  0  0  0  0  0  0  0  0  0  0
    8.6726    5.0684    0.0000 O   0  0  0  0  0  0  0  0  0  0  0  0
    9.9715    2.8185    0.0000 C   0  0  0  0  0  0  0  0  0  0  0  0
   11.2706    3.5686    0.0000 C   0  0  0  0  0  0  0  0  0  0  0  0
   11.2706    5.0684    0.0000 O   0  0  0  0  0  0  0  0  0  0  0  0
   12.5697    2.8185    0.0000 O   0  0  0  0  0  0  0  0  0  0  0  0
    2.1774    1.3186    0.0000 C   0  0  0  0  0  0  0  0  0  0  0  0
  1  2  1  0  0  0  0
  2  3  1  0  0  0  0
  3  4  1  0  0  0  0
  3  5  1  0  0  0  0
  3  6  1  0  0  0  0
  6  7  2  0  0  0  0
  6  8  1  0  0  0  0
  8  9  1  0  0  0  0
 10  9  1  0  0  0  0
  9 31  1  0  0  0  0
 11 10  1  0  0  0  0
 11 12  1  0  0  0  0
 13 11  1  0  0  0  0
 14 13  2  0  0  0  0
 15 14  1  0  0  0  0
 14 31  1  0  0  0  0
 16 15  2  0  0  0  0
 17 16  1  0  0  0  0
 17 18  1  0  0  0  0
 19 17  1  0  0  0  0
 19 20  1  0  0  0  0
 31 19  1  0  0  0  0
 20 21  1  0  0  0  0
 21 22  1  0  0  0  0
 22 23  1  0  0  0  0
 22 24  1  0  0  0  0
 24 25  1  0  0  0  0
 25 26  1  0  0  0  0
 25 27  1  0  0  0  0
 27 28  1  0  0  0  0
 28 29  2  0  0  0  0
 28 30  1  0  0  0  0
M  END
> <Inchi_key>
XWLXKKNPFMNSFA-UHFFFAOYSA-N

> <Source>
Mulliner

> <ID>
HT2003

> <H_MFHB>
0

> <CAS>


> <Cholestasis>


> <Name>
tenivastatin

> <Class>
0


$$$$