
  -INDIGO-08031710012D

 16 15  0  0  0  0  0  0  0  0999 V2000
   -1.2798   -2.2166    0.0000 C   0  0  0  0  0  0  0  0  0  0  0  0
   -0.5297   -3.5156    0.0000 C   0  0  0  0  0  0  0  0  0  0  0  0
    0.2203   -4.8147    0.0000 C   0  0  0  0  0  0  0  0  0  0  0  0
   -1.8289   -4.2656    0.0000 C   0  0  0  0  0  0  0  0  0  0  0  0
   -3.1278   -3.5156    0.0000 O   0  0  0  0  0  0  0  0  0  0  0  0
    0.7692   -2.7656    0.0000 C   0  0  0  0  0  0  0  0  0  0  0  0
    0.7692   -1.2656    0.0000 O   0  0  0  0  0  0  0  0  0  0  0  0
    2.0684   -3.5156    0.0000 C   0  0  0  0  0  0  0  0  0  0  0  0
    2.0684   -5.0156    0.0000 O   0  0  0  0  0  0  0  0  0  0  0  0
    3.3675   -2.7656    0.0000 N   0  0  0  0  0  0  0  0  0  0  0  0
    4.6664   -3.5156    0.0000 C   0  0  0  0  0  0  0  0  0  0  0  0
    5.9654   -2.7656    0.0000 C   0  0  0  0  0  0  0  0  0  0  0  0
    7.2645   -3.5156    0.0000 C   0  0  0  0  0  0  0  0  0  0  0  0
    8.5635   -2.7656    0.0000 C   0  0  0  0  0  0  0  0  0  0  0  0
    8.5635   -1.2656    0.0000 O   0  0  0  0  0  0  0  0  0  0  0  0
    9.8626   -3.5156    0.0000 O   0  0  0  0  0  0  0  0  0  0  0  0
  1  2  1  0  0  0  0
  2  3  1  0  0  0  0
  2  4  1  0  0  0  0
  2  6  1  0  0  0  0
  4  5  1  0  0  0  0
  6  7  1  0  0  0  0
  6  8  1  0  0  0  0
  8  9  2  0  0  0  0
  8 10  1  0  0  0  0
 10 11  1  0  0  0  0
 11 12  1  0  0  0  0
 12 13  1  0  0  0  0
 13 14  1  0  0  0  0
 14 15  2  0  0  0  0
 14 16  1  0  0  0  0
M  END
> <Inchi_key>
SBBDHANTMHIRGW-UHFFFAOYSA-N

> <Source>
Mulliner

> <ID>
HT0355

> <H_MFHB>
0

> <CAS>


> <Cholestasis>


> <Name>
calcium hopantenate

> <Class>
0

$$$$