

  -INDIGO-08031710012D

 15 15  0  0  0  0  0  0  0  0999 V2000
    2.3706    1.3687    0.0000 C   0  0  0  0  0  0  0  0  0  0  0  0
    1.6206    0.0696    0.0000 C   0  0  0  0  0  0  0  0  0  0  0  0
    0.1206    0.0696    0.0000 C   0  0  0  0  0  0  0  0  0  0  0  0
    2.3706   -1.2294    0.0000 C   0  0  0  0  0  0  0  0  0  0  0  0
    0.8706   -1.2294    0.0000 C   0  0  0  0  0  0  0  0  0  0  0  0
    0.1206   -2.5285    0.0000 C   0  0  0  0  0  0  0  0  0  0  0  0
   -1.3794   -2.5285    0.0000 C   0  0  0  0  0  0  0  0  0  0  0  0
    2.3706   -2.7294    0.0000 C   0  0  0  0  0  0  0  0  0  0  0  0
    1.0715   -3.4794    0.0000 O   0  0  0  0  0  0  0  0  0  0  0  0
    3.6697   -3.4794    0.0000 N   0  0  0  0  0  0  0  0  0  0  0  0
    4.9687   -2.7294    0.0000 C   0  0  0  0  0  0  0  0  0  0  0  0
    6.2677   -3.4794    0.0000 O   0  0  0  0  0  0  0  0  0  0  0  0
    4.9687   -1.2294    0.0000 N   0  0  0  0  0  0  0  0  0  0  0  0
    3.6697   -0.4794    0.0000 C   0  0  0  0  0  0  0  0  0  0  0  0
    3.6697    1.0206    0.0000 O   0  0  0  0  0  0  0  0  0  0  0  0
  1  2  1  0  0  0  0
  2  3  1  0  0  0  0
  2  4  1  0  0  0  0
  4  5  1  0  0  0  0
  8  4  1  0  0  0  0
  4 14  1  0  0  0  0
  5  6  1  0  0  0  0
  6  7  2  0  0  0  0
  8  9  2  0  0  0  0
 10  8  1  0  0  0  0
 11 10  1  0  0  0  0
 11 12  2  0  0  0  0
 13 11  1  0  0  0  0
 14 13  1  0  0  0  0
 14 15  2  0  0  0  0
M  END
> <Inchi_key>
UORJNBVJVRLXMQ-UHFFFAOYSA-N

> <Source>
Mulliner

> <ID>
HT0175

> <H_MFHB>
0

> <CAS>


> <Cholestasis>


> <Name>
aprobarbital

> <Class>
0


$$$$