

  -INDIGO-08031710012D

 30 33  0  0  0  0  0  0  0  0999 V2000
   11.6500   -0.0001    0.0000 O   0  0  0  0  0  0  0  0  0  0  0  0
   10.1500   -0.0001    0.0000 C   0  0  0  0  0  0  0  0  0  0  0  0
    9.4000   -1.2990    0.0000 C   0  0  0  0  0  0  0  0  0  0  0  0
    7.9001   -1.2990    0.0000 O   0  0  0  0  0  0  0  0  0  0  0  0
    7.1501   -2.5980    0.0000 C   0  0  0  0  0  0  0  0  0  0  0  0
    7.9001   -3.8971    0.0000 C   0  0  0  0  0  0  0  0  0  0  0  0
    7.1501   -5.1961    0.0000 O   0  0  0  0  0  0  0  0  0  0  0  0
    9.4000   -3.8971    0.0000 C   0  0  0  0  0  0  0  0  0  0  0  0
   10.1500   -5.1961    0.0000 O   0  0  0  0  0  0  0  0  0  0  0  0
   10.1500   -2.5980    0.0000 C   0  0  0  0  0  0  0  0  0  0  0  0
   11.6500   -2.5980    0.0000 O   0  0  0  0  0  0  0  0  0  0  0  0
    5.6499   -2.5980    0.0000 C   0  0  0  0  0  0  0  0  0  0  0  0
    4.8999   -3.8971    0.0000 C   0  0  0  0  0  0  0  0  0  0  0  0
    5.6499   -5.1961    0.0000 C   0  0  0  0  0  0  0  0  0  0  0  0
    4.8999   -6.4952    0.0000 C   0  0  0  0  0  0  0  0  0  0  0  0
    3.4000   -6.4952    0.0000 C   0  0  0  0  0  0  0  0  0  0  0  0
    2.6500   -5.1961    0.0000 C   0  0  0  0  0  0  0  0  0  0  0  0
    1.1500   -5.1961    0.0000 O   0  0  0  0  0  0  0  0  0  0  0  0
    3.4000   -3.8971    0.0000 C   0  0  0  0  0  0  0  0  0  0  0  0
    2.6500   -2.5980    0.0000 C   0  0  0  0  0  0  0  0  0  0  0  0
    1.1500   -2.5980    0.0000 O   0  0  0  0  0  0  0  0  0  0  0  0
    3.4000   -1.2990    0.0000 C   0  0  0  0  0  0  0  0  0  0  0  0
    2.6500   -0.0001    0.0000 C   0  0  0  0  0  0  0  0  0  0  0  0
    1.1500   -0.0001    0.0000 O   0  0  0  0  0  0  0  0  0  0  0  0
    3.4000    1.2990    0.0000 C   0  0  0  0  0  0  0  0  0  0  0  0
    4.8999    1.2990    0.0000 C   0  0  0  0  0  0  0  0  0  0  0  0
    5.6499    2.5980    0.0000 C   0  0  0  0  0  0  0  0  0  0  0  0
    4.8999    3.8971    0.0000 O   0  0  0  0  0  0  0  0  0  0  0  0
    5.6499   -0.0001    0.0000 C   0  0  0  0  0  0  0  0  0  0  0  0
    4.8999   -1.2990    0.0000 C   0  0  0  0  0  0  0  0  0  0  0  0
  1  2  1  0  0  0  0
  2  3  1  0  0  0  0
  4  3  1  0  0  0  0
  3 10  1  0  0  0  0
  5  4  1  0  0  0  0
  6  5  1  0  0  0  0
  5 12  1  0  0  0  0
  6  7  1  0  0  0  0
  8  6  1  0  0  0  0
  8  9  1  0  0  0  0
 10  8  1  0  0  0  0
 10 11  1  0  0  0  0
 13 12  1  0  0  0  0
 12 30  1  0  0  0  0
 14 13  2  0  0  0  0
 13 19  1  0  0  0  0
 15 14  1  0  0  0  0
 16 15  2  0  0  0  0
 17 16  1  0  0  0  0
 17 18  1  0  0  0  0
 19 17  2  0  0  0  0
 20 19  1  0  0  0  0
 20 21  2  0  0  0  0
 22 20  1  0  0  0  0
 23 22  2  0  0  0  0
 22 30  1  0  0  0  0
 23 24  1  0  0  0  0
 25 23  1  0  0  0  0
 26 25  2  0  0  0  0
 26 27  1  0  0  0  0
 29 26  1  0  0  0  0
 27 28  1  0  0  0  0
 30 29  2  0  0  0  0
M  END
> <Inchi_key>
AFHJQYHRLPMKHU-UHFFFAOYSA-N

> <Source>
Mulliner

> <ID>
HT2251

> <H_MFHB>
0

> <CAS>


> <Cholestasis>


> <Name>


> <Class>
0


$$$$