
  -INDIGO-08031710012D

 28 31  0  0  0  0  0  0  0  0999 V2000
   10.2095    2.7186    0.0000 C   0  0  0  0  0  0  0  0  0  0  0  0
    8.9080    1.9726    0.0000 C   0  0  0  0  0  0  0  0  0  0  0  0
    7.5397    2.5870    0.0000 C   0  0  0  0  0  0  0  0  0  0  0  0
    6.5325    1.4754    0.0000 C   0  0  0  0  0  0  0  0  0  0  0  0
    5.0325    1.4801    0.0000 C   0  0  0  0  0  0  0  0  0  0  0  0
    4.2867    2.7815    0.0000 C   0  0  0  0  0  0  0  0  0  0  0  0
    2.7865    2.7861    0.0000 C   0  0  0  0  0  0  0  0  0  0  0  0
    2.0406    4.0875    0.0000 F   0  0  0  0  0  0  0  0  0  0  0  0
    2.0324    1.4894    0.0000 C   0  0  0  0  0  0  0  0  0  0  0  0
    0.5325    1.4941    0.0000 C   0  0  0  0  0  0  0  0  0  0  0  0
   -0.2216    0.1974    0.0000 C   0  0  0  0  0  0  0  0  0  0  0  0
   -1.7215    0.2021    0.0000 O   0  0  0  0  0  0  0  0  0  0  0  0
    0.5243   -1.1039    0.0000 C   0  0  0  0  0  0  0  0  0  0  0  0
    2.0245   -1.1086    0.0000 C   0  0  0  0  0  0  0  0  0  0  0  0
    2.7785    0.1881    0.0000 C   0  0  0  0  0  0  0  0  0  0  0  0
    3.5244   -1.1133    0.0000 C   0  0  0  0  0  0  0  0  0  0  0  0
    4.2785    0.1834    0.0000 C   0  0  0  0  0  0  0  0  0  0  0  0
    5.7784    0.1787    0.0000 Cl  0  0  0  0  0  0  0  0  0  0  0  0
    5.0244   -1.1180    0.0000 C   0  0  0  0  0  0  0  0  0  0  0  0
    4.2705   -2.4147    0.0000 O   0  0  0  0  0  0  0  0  0  0  0  0
    6.5245   -1.1227    0.0000 C   0  0  0  0  0  0  0  0  0  0  0  0
    7.2786    0.1740    0.0000 C   0  0  0  0  0  0  0  0  0  0  0  0
    8.1350   -1.0574    0.0000 C   0  0  0  0  0  0  0  0  0  0  0  0
    8.7466    0.4813    0.0000 C   0  0  0  0  0  0  0  0  0  0  0  0
    9.8581   -0.5258    0.0000 C   0  0  0  0  0  0  0  0  0  0  0  0
    9.5418   -1.9921    0.0000 O   0  0  0  0  0  0  0  0  0  0  0  0
   11.2861   -0.0668    0.0000 C   0  0  0  0  0  0  0  0  0  0  0  0
   12.3978   -1.0739    0.0000 O   0  0  0  0  0  0  0  0  0  0  0  0
  1  2  1  0  0  0  0
  3  2  1  0  0  0  0
  2 24  1  0  0  0  0
  4  3  1  0  0  0  0
  5  4  1  0  0  0  0
  4 22  1  0  0  0  0
  6  5  1  0  0  0  0
  5 17  1  0  0  0  0
  7  6  1  0  0  0  0
  7  8  1  0  0  0  0
  9  7  1  0  0  0  0
 10  9  2  0  0  0  0
  9 15  1  0  0  0  0
 11 10  1  0  0  0  0
 11 12  2  0  0  0  0
 13 11  1  0  0  0  0
 14 13  2  0  0  0  0
 15 14  1  0  0  0  0
 15 16  1  0  0  0  0
 17 15  1  0  0  0  0
 17 18  1  0  0  0  0
 19 17  1  0  0  0  0
 19 20  1  0  0  0  0
 21 19  1  0  0  0  0
 22 21  1  0  0  0  0
 22 23  1  0  0  0  0
 24 22  1  0  0  0  0
 24 25  1  0  0  0  0
 25 26  2  0  0  0  0
 25 27  1  0  0  0  0
 27 28  1  0  0  0  0
M  END
> <Inchi_key>
YMTMADLUXIRMGX-UHFFFAOYSA-N

> <Source>
Mulliner

> <ID>
HT0519

> <H_MFHB>
0

> <CAS>


> <Cholestasis>


> <Name>
clocortolone

> <Class>
0

$$$$