
  -INDIGO-08031710012D

 19 19  0  0  0  0  0  0  0  0999 V2000
   14.0339    3.7604    0.0000 C   0  0  0  0  0  0  0  0  0  0  0  0
   12.7350    4.5105    0.0000 C   0  0  0  0  0  0  0  0  0  0  0  0
   12.7350    6.0105    0.0000 C   0  0  0  0  0  0  0  0  0  0  0  0
   11.4358    3.7604    0.0000 N   0  0  0  0  0  0  0  0  0  0  0  0
   10.1369    4.5105    0.0000 C   0  0  0  0  0  0  0  0  0  0  0  0
    8.8377    3.7604    0.0000 C   0  0  0  0  0  0  0  0  0  0  0  0
    8.8377    2.2604    0.0000 O   0  0  0  0  0  0  0  0  0  0  0  0
    7.5388    4.5105    0.0000 C   0  0  0  0  0  0  0  0  0  0  0  0
    6.2397    3.7604    0.0000 O   0  0  0  0  0  0  0  0  0  0  0  0
    4.9405    4.5105    0.0000 C   0  0  0  0  0  0  0  0  0  0  0  0
    4.9405    6.0105    0.0000 C   0  0  0  0  0  0  0  0  0  0  0  0
    3.6416    6.7604    0.0000 C   0  0  0  0  0  0  0  0  0  0  0  0
    2.3426    6.0105    0.0000 C   0  0  0  0  0  0  0  0  0  0  0  0
    2.3426    4.5105    0.0000 C   0  0  0  0  0  0  0  0  0  0  0  0
    3.6416    3.7604    0.0000 C   0  0  0  0  0  0  0  0  0  0  0  0
    3.6416    2.2604    0.0000 O   0  0  0  0  0  0  0  0  0  0  0  0
    2.3426    1.5105    0.0000 C   0  0  0  0  0  0  0  0  0  0  0  0
    2.3426    0.0105    0.0000 C   0  0  0  0  0  0  0  0  0  0  0  0
    1.0435   -0.7396    0.0000 C   0  0  0  0  0  0  0  0  0  0  0  0
  1  2  1  0  0  0  0
  2  3  1  0  0  0  0
  2  4  1  0  0  0  0
  4  5  1  0  0  0  0
  5  6  1  0  0  0  0
  6  7  1  0  0  0  0
  6  8  1  0  0  0  0
  8  9  1  0  0  0  0
  9 10  1  0  0  0  0
 11 10  2  0  0  0  0
 10 15  1  0  0  0  0
 12 11  1  0  0  0  0
 13 12  2  0  0  0  0
 14 13  1  0  0  0  0
 15 14  2  0  0  0  0
 15 16  1  0  0  0  0
 16 17  1  0  0  0  0
 17 18  1  0  0  0  0
 18 19  2  0  0  0  0
M  END
> <Inchi_key>
CEMAWMOMDPGJMB-UHFFFAOYSA-N

> <Source>
Mulliner

> <ID>
HT1561

> <H_MFHB>
0

> <CAS>
6452-73-9;22972-97-0

> <Cholestasis>


> <Name>
oxprenolol hydrochloride;oxprenolol

> <Class>
0

$$$$