

  -INDIGO-08031710012D

 20 21  0  0  0  0  0  0  0  0999 V2000
   11.7780    1.1310    0.0000 C   0  0  0  0  0  0  0  0  0  0  0  0
   10.4789    1.8809    0.0000 N   0  0  0  0  0  0  0  0  0  0  0  0
   10.4789    3.3809    0.0000 C   0  0  0  0  0  0  0  0  0  0  0  0
    9.1800    1.1310    0.0000 C   0  0  0  0  0  0  0  0  0  0  0  0
    7.8808    1.8809    0.0000 C   0  0  0  0  0  0  0  0  0  0  0  0
    6.5819    1.1310    0.0000 O   0  0  0  0  0  0  0  0  0  0  0  0
    5.2829    1.8809    0.0000 C   0  0  0  0  0  0  0  0  0  0  0  0
    5.2829    3.3809    0.0000 C   0  0  0  0  0  0  0  0  0  0  0  0
    6.5819    4.1310    0.0000 C   0  0  0  0  0  0  0  0  0  0  0  0
    6.5819    5.6310    0.0000 C   0  0  0  0  0  0  0  0  0  0  0  0
    5.2829    6.3809    0.0000 C   0  0  0  0  0  0  0  0  0  0  0  0
    3.9838    5.6310    0.0000 C   0  0  0  0  0  0  0  0  0  0  0  0
    3.9838    4.1310    0.0000 C   0  0  0  0  0  0  0  0  0  0  0  0
    3.9838    1.1310    0.0000 C   0  0  0  0  0  0  0  0  0  0  0  0
    2.6848    1.8809    0.0000 C   0  0  0  0  0  0  0  0  0  0  0  0
    1.3857    1.1310    0.0000 C   0  0  0  0  0  0  0  0  0  0  0  0
    1.3857   -0.3690    0.0000 C   0  0  0  0  0  0  0  0  0  0  0  0
    2.6848   -1.1191    0.0000 C   0  0  0  0  0  0  0  0  0  0  0  0
    3.9838   -0.3690    0.0000 C   0  0  0  0  0  0  0  0  0  0  0  0
    5.2829   -1.1191    0.0000 C   0  0  0  0  0  0  0  0  0  0  0  0
  1  2  1  0  0  0  0
  2  3  1  0  0  0  0
  2  4  1  0  0  0  0
  4  5  1  0  0  0  0
  5  6  1  0  0  0  0
  6  7  1  0  0  0  0
  7  8  1  0  0  0  0
  7 14  1  0  0  0  0
  9  8  2  0  0  0  0
  8 13  1  0  0  0  0
 10  9  1  0  0  0  0
 11 10  2  0  0  0  0
 12 11  1  0  0  0  0
 13 12  2  0  0  0  0
 15 14  2  0  0  0  0
 14 19  1  0  0  0  0
 16 15  1  0  0  0  0
 17 16  2  0  0  0  0
 18 17  1  0  0  0  0
 19 18  2  0  0  0  0
 19 20  1  0  0  0  0
M  END
> <Inchi_key>
QVYRGXJJSLMXQH-UHFFFAOYSA-N

> <Source>
Mulliner , Kotsampasakou

> <ID>
EK0394;HT1545

> <H_MFHB>
0

> <CAS>


> <Cholestasis>
0

> <Name>
orphenadrine citrate;orphenadrine;orphenadrine hydrochloride

> <Class>
0


$$$$