
  -INDIGO-08031710012D

 29 31  0  0  0  0  0  0  0  0999 V2000
   -0.4626   -8.2077    0.0000 C   0  0  0  0  0  0  0  0  0  0  0  0
   -0.4573   -6.7077    0.0000 C   0  0  0  0  0  0  0  0  0  0  0  0
   -1.7539   -5.9532    0.0000 C   0  0  0  0  0  0  0  0  0  0  0  0
   -2.5082   -7.2496    0.0000 C   0  0  0  0  0  0  0  0  0  0  0  0
   -4.0084   -7.2444    0.0000 C   0  0  0  0  0  0  0  0  0  0  0  0
   -0.9993   -4.6567    0.0000 C   0  0  0  0  0  0  0  0  0  0  0  0
    0.5006   -4.6619    0.0000 C   0  0  0  0  0  0  0  0  0  0  0  0
    1.2462   -5.9635    0.0000 O   0  0  0  0  0  0  0  0  0  0  0  0
    1.2550   -3.3655    0.0000 N   0  0  0  0  0  0  0  0  0  0  0  0
    2.7552   -3.3707    0.0000 C   0  0  0  0  0  0  0  0  0  0  0  0
    3.5005   -4.6723    0.0000 C   0  0  0  0  0  0  0  0  0  0  0  0
    5.0007   -4.6775    0.0000 C   0  0  0  0  0  0  0  0  0  0  0  0
    5.7550   -3.3811    0.0000 C   0  0  0  0  0  0  0  0  0  0  0  0
    5.0097   -2.0794    0.0000 C   0  0  0  0  0  0  0  0  0  0  0  0
    5.7641   -0.7830    0.0000 C   0  0  0  0  0  0  0  0  0  0  0  0
    7.2640   -0.7882    0.0000 C   0  0  0  0  0  0  0  0  0  0  0  0
    8.0095   -2.0898    0.0000 C   0  0  0  0  0  0  0  0  0  0  0  0
    9.5007   -2.2517    0.0000 N   0  0  0  0  0  0  0  0  0  0  0  0
    9.8076   -3.7200    0.0000 C   0  0  0  0  0  0  0  0  0  0  0  0
    8.5060   -4.4655    0.0000 C   0  0  0  0  0  0  0  0  0  0  0  0
    7.3948   -3.4580    0.0000 S   0  0  0  0  0  0  0  0  0  0  0  0
   11.1759   -4.3348    0.0000 C   0  0  0  0  0  0  0  0  0  0  0  0
   11.7086   -5.7371    0.0000 C   0  0  0  0  0  0  0  0  0  0  0  0
   13.1107   -5.2044    0.0000 C   0  0  0  0  0  0  0  0  0  0  0  0
   12.5780   -3.8020    0.0000 C   0  0  0  0  0  0  0  0  0  0  0  0
    3.5095   -2.0742    0.0000 C   0  0  0  0  0  0  0  0  0  0  0  0
   -3.0502   -5.1987    0.0000 C   0  0  0  0  0  0  0  0  0  0  0  0
   -4.3519   -5.9442    0.0000 O   0  0  0  0  0  0  0  0  0  0  0  0
   -3.0452   -3.6987    0.0000 O   0  0  0  0  0  0  0  0  0  0  0  0
  1  2  1  0  0  0  0
  2  3  1  0  0  0  0
  3  4  1  0  0  0  0
  3  6  1  0  0  0  0
  3 27  1  0  0  0  0
  4  5  1  0  0  0  0
  6  7  1  0  0  0  0
  7  8  2  0  0  0  0
  7  9  1  0  0  0  0
  9 10  1  0  0  0  0
 11 10  2  0  0  0  0
 10 26  1  0  0  0  0
 12 11  1  0  0  0  0
 13 12  2  0  0  0  0
 14 13  1  0  0  0  0
 14 15  1  0  0  0  0
 26 14  2  0  0  0  0
 15 16  2  0  0  0  0
 16 17  1  0  0  0  0
 18 17  2  0  0  0  0
 17 21  1  0  0  0  0
 19 18  1  0  0  0  0
 20 19  2  0  0  0  0
 19 22  1  0  0  0  0
 21 20  1  0  0  0  0
 23 22  1  0  0  0  0
 22 25  1  0  0  0  0
 24 23  1  0  0  0  0
 25 24  1  0  0  0  0
 27 28  2  0  0  0  0
 27 29  1  0  0  0  0
M  END
> <Inchi_key>
BZMKNPGKXJAIDV-QXMHVHEDSA-N

> <Source>
Mulliner

> <ID>
HT0488

> <H_MFHB>
0

> <CAS>


> <Cholestasis>


> <Name>
cinalukast

> <Class>
0

$$$$