
  -INDIGO-08031710012D

 11 10  0  0  0  0  0  0  0  0999 V2000
   -0.5014   -2.1440    0.0000 C   0  0  0  0  0  0  0  0  0  0  0  0
    0.7976   -1.3940    0.0000 C   0  0  0  0  0  0  0  0  0  0  0  0
    2.0966   -2.1440    0.0000 C   0  0  0  0  0  0  0  0  0  0  0  0
    1.3467   -3.4430    0.0000 C   0  0  0  0  0  0  0  0  0  0  0  0
    2.8468   -0.8449    0.0000 C   0  0  0  0  0  0  0  0  0  0  0  0
    3.3957   -2.8940    0.0000 N   0  0  0  0  0  0  0  0  0  0  0  0
    4.6948   -2.1440    0.0000 C   0  0  0  0  0  0  0  0  0  0  0  0
    4.6948   -0.6440    0.0000 N   0  0  0  0  0  0  0  0  0  0  0  0
    5.9939   -2.8940    0.0000 N   0  0  0  0  0  0  0  0  0  0  0  0
    7.2927   -2.1440    0.0000 C   0  0  0  0  0  0  0  0  0  0  0  0
    8.5919   -1.3940    0.0000 N   0  0  0  0  0  0  0  0  0  0  0  0
  1  2  1  0  0  0  0
  2  3  1  0  0  0  0
  3  4  1  0  0  0  0
  3  5  1  0  0  0  0
  3  6  1  0  0  0  0
  6  7  2  0  0  0  0
  7  8  1  0  0  0  0
  7  9  1  0  0  0  0
  9 10  1  0  0  0  0
 10 11  3  0  0  0  0
M  END
> <Inchi_key>
VZVGEDRCVUKSEL-UHFFFAOYSA-N

> <Source>
Mulliner

> <ID>
HT2651

> <H_MFHB>
0

> <CAS>


> <Cholestasis>


> <Name>


> <Class>
0

$$$$