

  -INDIGO-08031710012D

 29 31  0  0  0  0  0  0  0  0999 V2000
    6.2069   -2.4189    0.0000 O   0  0  0  0  0  0  0  0  0  0  0  0
    5.4569   -3.7180    0.0000 C   0  0  0  0  0  0  0  0  0  0  0  0
    6.2069   -5.0170    0.0000 N   0  0  0  0  0  0  0  0  0  0  0  0
    7.7070   -5.0170    0.0000 C   0  0  0  0  0  0  0  0  0  0  0  0
    8.4568   -6.3160    0.0000 C   0  0  0  0  0  0  0  0  0  0  0  0
    9.9569   -6.3160    0.0000 C   0  0  0  0  0  0  0  0  0  0  0  0
   10.7069   -5.0170    0.0000 C   0  0  0  0  0  0  0  0  0  0  0  0
    9.9569   -3.7180    0.0000 C   0  0  0  0  0  0  0  0  0  0  0  0
    8.4568   -3.7180    0.0000 C   0  0  0  0  0  0  0  0  0  0  0  0
    3.9568   -3.7180    0.0000 O   0  0  0  0  0  0  0  0  0  0  0  0
    3.2068   -2.4189    0.0000 C   0  0  0  0  0  0  0  0  0  0  0  0
    1.7070   -2.4189    0.0000 C   0  0  0  0  0  0  0  0  0  0  0  0
    0.9570   -1.1199    0.0000 C   0  0  0  0  0  0  0  0  0  0  0  0
    1.7070    0.1793    0.0000 N   0  0  0  0  0  0  0  0  0  0  0  0
    0.9570    1.4781    0.0000 C   0  0  0  0  0  0  0  0  0  0  0  0
    1.7070    2.7773    0.0000 C   0  0  0  0  0  0  0  0  0  0  0  0
    3.2068    2.7773    0.0000 C   0  0  0  0  0  0  0  0  0  0  0  0
    3.9568    1.4781    0.0000 C   0  0  0  0  0  0  0  0  0  0  0  0
    3.2068    0.1793    0.0000 C   0  0  0  0  0  0  0  0  0  0  0  0
    0.9570   -3.7180    0.0000 O   0  0  0  0  0  0  0  0  0  0  0  0
   -0.5431   -3.7180    0.0000 C   0  0  0  0  0  0  0  0  0  0  0  0
   -1.2931   -2.4189    0.0000 O   0  0  0  0  0  0  0  0  0  0  0  0
   -1.2931   -5.0170    0.0000 N   0  0  0  0  0  0  0  0  0  0  0  0
   -2.7932   -5.0170    0.0000 C   0  0  0  0  0  0  0  0  0  0  0  0
   -3.5430   -6.3160    0.0000 C   0  0  0  0  0  0  0  0  0  0  0  0
   -5.0431   -6.3160    0.0000 C   0  0  0  0  0  0  0  0  0  0  0  0
   -5.7931   -5.0170    0.0000 C   0  0  0  0  0  0  0  0  0  0  0  0
   -5.0431   -3.7180    0.0000 C   0  0  0  0  0  0  0  0  0  0  0  0
   -3.5430   -3.7180    0.0000 C   0  0  0  0  0  0  0  0  0  0  0  0
  1  2  2  0  0  0  0
  2  3  1  0  0  0  0
  2 10  1  0  0  0  0
  3  4  1  0  0  0  0
  5  4  2  0  0  0  0
  4  9  1  0  0  0  0
  6  5  1  0  0  0  0
  7  6  2  0  0  0  0
  8  7  1  0  0  0  0
  9  8  2  0  0  0  0
 10 11  1  0  0  0  0
 11 12  1  0  0  0  0
 12 13  1  0  0  0  0
 12 20  1  0  0  0  0
 13 14  1  0  0  0  0
 15 14  1  0  0  0  0
 14 19  1  0  0  0  0
 16 15  1  0  0  0  0
 17 16  1  0  0  0  0
 18 17  1  0  0  0  0
 19 18  1  0  0  0  0
 20 21  1  0  0  0  0
 21 22  2  0  0  0  0
 21 23  1  0  0  0  0
 23 24  1  0  0  0  0
 25 24  2  0  0  0  0
 24 29  1  0  0  0  0
 26 25  1  0  0  0  0
 27 26  2  0  0  0  0
 28 27  1  0  0  0  0
 29 28  2  0  0  0  0
M  END
> <Inchi_key>
YUGZHQHSNYIFLG-UHFFFAOYSA-N

> <Source>
Mulliner

> <ID>
HT3750

> <H_MFHB>
0

> <CAS>


> <Cholestasis>


> <Name>


> <Class>
0


$$$$