

  -INDIGO-08031710013D

  0  0  0  0  0  0  0  0  0  0  0 V3000
M  V30 BEGIN CTAB
M  V30 COUNTS 22 26 0 0 0
M  V30 BEGIN ATOM
M  V30 1 C 0.0249915 -0.243531 0.0 0
M  V30 2 C 1.52142 -0.139498 0.0 0
M  V30 3 C 1.41733 1.35687 0.0 0
M  V30 4 O 1.6255 -1.63587 0.0 0
M  V30 5 C 3.01784 -0.0353991 -1.4621 0
M  V30 6 C 2.74749 -0.912694 -0.243891 0
M  V30 7 O 1.40194 -0.770679 0.427687 0
M  V30 8 C 1.18267 0.699815 0.210384 0
M  V30 9 O 0.001 1.62367 0.0 0
M  V30 10 C 2.60998 0.835975 -0.297099 0
M  V30 11 C 3.64496 1.38581 0.622707 0
M  V30 12 O 2.67528 2.5301 0.0 0
M  V30 13 C 4.42606 2.48387 -0.126788 0
M  V30 14 C 5.54124 1.58609 -0.804582 0
M  V30 15 O 6.73187 1.48778 0.629415 0
M  V30 16 C 5.57562 0.258407 -0.263787 0
M  V30 17 C 6.33165 -0.783118 -0.307293 0
M  V30 18 O 7.8233 -0.941828 0.0 0
M  V30 19 O 5.1649 -1.8291 -0.107309 0
M  V30 20 C 3.96306 -1.0861 0.701192 0
M  V30 21 C 4.61441 0.33437 1.0215 0
M  V30 22 C 5.37068 -0.960918 0.0 0
M  V30 END ATOM
M  V30 BEGIN BOND
M  V30 1 1 1 2
M  V30 2 1 2 3
M  V30 3 1 2 4
M  V30 4 1 2 5
M  V30 5 1 6 5
M  V30 6 1 5 10
M  V30 7 1 6 7
M  V30 8 1 20 6
M  V30 9 1 7 8
M  V30 10 2 8 9
M  V30 11 1 8 10
M  V30 12 1 10 11
M  V30 13 1 11 12
M  V30 14 1 13 11
M  V30 15 1 11 21
M  V30 16 1 14 13
M  V30 17 1 15 14
M  V30 18 1 14 16
M  V30 19 1 16 15
M  V30 20 1 17 16
M  V30 21 1 16 21
M  V30 22 2 17 18
M  V30 23 1 19 17
M  V30 24 1 20 19
M  V30 25 1 21 20
M  V30 26 1 21 22
M  V30 END BOND
M  V30 BEGIN COLLECTION
M  V30 END COLLECTION
M  V30 END CTAB
M  END
> <Inchi_key>
RYEFFICCPKWYML-QGCFLGAASA-N

> <Source>
Mulliner

> <ID>
HT1671

> <H_MFHB>
0

> <CAS>


> <Cholestasis>


> <Name>
picrotoxin

> <Class>
0


$$$$