

  -INDIGO-08031710012D

 22 22  0  0  0  0  0  0  0  0999 V2000
    1.2757    4.7611    0.0000 C   0  0  0  0  0  0  0  0  0  0  0  0
    2.5748    4.0112    0.0000 C   0  0  0  0  0  0  0  0  0  0  0  0
    2.5748    2.5112    0.0000 C   0  0  0  0  0  0  0  0  0  0  0  0
    3.8737    1.7611    0.0000 C   0  0  0  0  0  0  0  0  0  0  0  0
    3.8737    0.2611    0.0000 O   0  0  0  0  0  0  0  0  0  0  0  0
    5.1728   -0.4888    0.0000 C   0  0  0  0  0  0  0  0  0  0  0  0
    6.4719    0.2611    0.0000 C   0  0  0  0  0  0  0  0  0  0  0  0
    7.7710   -0.4888    0.0000 C   0  0  0  0  0  0  0  0  0  0  0  0
    7.7710   -1.9888    0.0000 C   0  0  0  0  0  0  0  0  0  0  0  0
    6.4719   -2.7389    0.0000 C   0  0  0  0  0  0  0  0  0  0  0  0
    5.1728   -1.9888    0.0000 C   0  0  0  0  0  0  0  0  0  0  0  0
    3.8737   -2.7389    0.0000 N   0  0  0  0  0  0  0  0  0  0  0  0
    9.0699    0.2611    0.0000 C   0  0  0  0  0  0  0  0  0  0  0  0
    9.0699    1.7611    0.0000 O   0  0  0  0  0  0  0  0  0  0  0  0
   10.3690   -0.4888    0.0000 O   0  0  0  0  0  0  0  0  0  0  0  0
   11.6681    0.2611    0.0000 C   0  0  0  0  0  0  0  0  0  0  0  0
   12.9672   -0.4888    0.0000 C   0  0  0  0  0  0  0  0  0  0  0  0
   14.2661    0.2611    0.0000 N   0  0  0  0  0  0  0  0  0  0  0  0
   14.2661    1.7611    0.0000 C   0  0  0  0  0  0  0  0  0  0  0  0
   15.5652    2.5112    0.0000 C   0  0  0  0  0  0  0  0  0  0  0  0
   15.5652   -0.4888    0.0000 C   0  0  0  0  0  0  0  0  0  0  0  0
   15.5652   -1.9888    0.0000 C   0  0  0  0  0  0  0  0  0  0  0  0
  1  2  1  0  0  0  0
  2  3  1  0  0  0  0
  3  4  1  0  0  0  0
  4  5  1  0  0  0  0
  5  6  1  0  0  0  0
  7  6  2  0  0  0  0
  6 11  1  0  0  0  0
  8  7  1  0  0  0  0
  9  8  2  0  0  0  0
  8 13  1  0  0  0  0
 10  9  1  0  0  0  0
 11 10  2  0  0  0  0
 11 12  1  0  0  0  0
 13 14  2  0  0  0  0
 13 15  1  0  0  0  0
 15 16  1  0  0  0  0
 16 17  1  0  0  0  0
 17 18  1  0  0  0  0
 18 19  1  0  0  0  0
 18 21  1  0  0  0  0
 19 20  1  0  0  0  0
 21 22  1  0  0  0  0
M  END
> <Inchi_key>
CMHHMUWAYWTMGS-UHFFFAOYSA-N

> <Source>
Mulliner

> <ID>
HT1564

> <H_MFHB>
0

> <CAS>


> <Cholestasis>


> <Name>
oxybuprocaine

> <Class>
0


$$$$