

  -INDIGO-08031710012D

 26 29  0  0  0  0  0  0  0  0999 V2000
   -0.0152    0.1513    0.0000 C   0  0  0  0  0  0  0  0  0  0  0  0
    1.4840    0.1017    0.0000 C   0  0  0  0  0  0  0  0  0  0  0  0
    0.7363   -1.1987    0.0000 C   0  0  0  0  0  0  0  0  0  0  0  0
   -0.7636   -1.2014    0.0000 C   0  0  0  0  0  0  0  0  0  0  0  0
   -1.5161    0.0962    0.0000 C   0  0  0  0  0  0  0  0  0  0  0  0
   -3.0160    0.0935    0.0000 O   0  0  0  0  0  0  0  0  0  0  0  0
   -0.7683    1.3966    0.0000 C   0  0  0  0  0  0  0  0  0  0  0  0
    0.7316    1.3994    0.0000 C   0  0  0  0  0  0  0  0  0  0  0  0
    1.4791    2.6998    0.0000 C   0  0  0  0  0  0  0  0  0  0  0  0
    2.9793    2.7025    0.0000 C   0  0  0  0  0  0  0  0  0  0  0  0
    3.7317    1.4049    0.0000 C   0  0  0  0  0  0  0  0  0  0  0  0
    2.9840    0.1045    0.0000 C   0  0  0  0  0  0  0  0  0  0  0  0
    3.7364   -1.1932    0.0000 C   0  0  0  0  0  0  0  0  0  0  0  0
    5.2363   -1.1905    0.0000 C   0  0  0  0  0  0  0  0  0  0  0  0
    5.9841    0.1099    0.0000 C   0  0  0  0  0  0  0  0  0  0  0  0
    6.9095   -1.0704    0.0000 C   0  0  0  0  0  0  0  0  0  0  0  0
    5.2316    1.4076    0.0000 C   0  0  0  0  0  0  0  0  0  0  0  0
    6.2332    2.5242    0.0000 C   0  0  0  0  0  0  0  0  0  0  0  0
    7.6047    1.9166    0.0000 C   0  0  0  0  0  0  0  0  0  0  0  0
    7.4505    0.4245    0.0000 C   0  0  0  0  0  0  0  0  0  0  0  0
    7.8792   -1.0130    0.0000 O   0  0  0  0  0  0  0  0  0  0  0  0
    8.9261    0.1538    0.0000 C   0  0  0  0  0  0  0  0  0  0  0  0
    9.8981    1.2962    0.0000 C   0  0  0  0  0  0  0  0  0  0  0  0
   11.3734    1.0256    0.0000 C   0  0  0  0  0  0  0  0  0  0  0  0
   11.8767   -0.3875    0.0000 O   0  0  0  0  0  0  0  0  0  0  0  0
   12.3455    2.1680    0.0000 O   0  0  0  0  0  0  0  0  0  0  0  0
  1  2  1  0  0  0  0
  3  2  1  0  0  0  0
  8  2  1  0  0  0  0
  2 12  1  0  0  0  0
  4  3  1  0  0  0  0
  5  4  1  0  0  0  0
  5  6  2  0  0  0  0
  7  5  1  0  0  0  0
  8  7  2  0  0  0  0
  9  8  1  0  0  0  0
 10  9  2  0  0  0  0
 11 10  1  0  0  0  0
 11 12  1  0  0  0  0
 17 11  1  0  0  0  0
 12 13  1  0  0  0  0
 13 14  1  0  0  0  0
 14 15  1  0  0  0  0
 15 16  1  0  0  0  0
 17 15  1  0  0  0  0
 15 20  1  0  0  0  0
 18 17  1  0  0  0  0
 19 18  1  0  0  0  0
 20 19  1  0  0  0  0
 20 21  1  0  0  0  0
 20 22  1  0  0  0  0
 22 23  1  0  0  0  0
 23 24  1  0  0  0  0
 24 25  2  0  0  0  0
 24 26  1  0  0  0  0
M  END
> <Inchi_key>
PBKZPPIHUVSDNM-UHFFFAOYSA-N

> <Source>
Mulliner

> <ID>
HT3632

> <H_MFHB>
0

> <CAS>


> <Cholestasis>


> <Name>


> <Class>
0


$$$$