

  -INDIGO-08031710012D

 33 36  0  0  0  0  0  0  0  0999 V2000
    2.9977    7.9917    0.0000 C   0  0  0  0  0  0  0  0  0  0  0  0
    4.1278    7.0052    0.0000 C   0  0  0  0  0  0  0  0  0  0  0  0
    3.8383    5.5332    0.0000 C   0  0  0  0  0  0  0  0  0  0  0  0
    4.9683    4.5468    0.0000 C   0  0  0  0  0  0  0  0  0  0  0  0
    6.4305    4.8811    0.0000 N   0  0  0  0  0  0  0  0  0  0  0  0
    7.2002    3.5937    0.0000 C   0  0  0  0  0  0  0  0  0  0  0  0
    6.2139    2.4638    0.0000 C   0  0  0  0  0  0  0  0  0  0  0  0
    6.5480    1.0015    0.0000 C   0  0  0  0  0  0  0  0  0  0  0  0
    5.4490   -0.0192    0.0000 O   0  0  0  0  0  0  0  0  0  0  0  0
    7.9817    0.5598    0.0000 O   0  0  0  0  0  0  0  0  0  0  0  0
    4.8342    3.0528    0.0000 N   0  0  0  0  0  0  0  0  0  0  0  0
    3.5468    2.2830    0.0000 C   0  0  0  0  0  0  0  0  0  0  0  0
    2.2366    3.0130    0.0000 C   0  0  0  0  0  0  0  0  0  0  0  0
    2.2136    4.5129    0.0000 C   0  0  0  0  0  0  0  0  0  0  0  0
    0.9032    5.2429    0.0000 C   0  0  0  0  0  0  0  0  0  0  0  0
   -0.3841    4.4731    0.0000 C   0  0  0  0  0  0  0  0  0  0  0  0
   -0.3611    2.9733    0.0000 C   0  0  0  0  0  0  0  0  0  0  0  0
    0.9493    2.2432    0.0000 C   0  0  0  0  0  0  0  0  0  0  0  0
   -1.6945    5.2031    0.0000 C   0  0  0  0  0  0  0  0  0  0  0  0
   -1.7175    6.7029    0.0000 C   0  0  0  0  0  0  0  0  0  0  0  0
   -3.0279    7.4329    0.0000 C   0  0  0  0  0  0  0  0  0  0  0  0
   -4.3153    6.6631    0.0000 C   0  0  0  0  0  0  0  0  0  0  0  0
   -4.2923    5.1633    0.0000 C   0  0  0  0  0  0  0  0  0  0  0  0
   -2.9819    4.4333    0.0000 C   0  0  0  0  0  0  0  0  0  0  0  0
   -2.9591    2.9335    0.0000 C   0  0  0  0  0  0  0  0  0  0  0  0
   -4.1588    2.0333    0.0000 N   0  0  0  0  0  0  0  0  0  0  0  0
   -3.6735    0.6140    0.0000 N   0  0  0  0  0  0  0  0  0  0  0  0
   -2.1737    0.6370    0.0000 N   0  0  0  0  0  0  0  0  0  0  0  0
   -1.7321    2.0705    0.0000 N   0  0  0  0  0  0  0  0  0  0  0  0
    8.6943    3.4598    0.0000 C   0  0  0  0  0  0  0  0  0  0  0  0
    8.5604    1.9658    0.0000 C   0  0  0  0  0  0  0  0  0  0  0  0
   10.1884    3.3259    0.0000 C   0  0  0  0  0  0  0  0  0  0  0  0
    8.8282    4.9538    0.0000 O   0  0  0  0  0  0  0  0  0  0  0  0
  1  2  1  0  0  0  0
  2  3  1  0  0  0  0
  3  4  1  0  0  0  0
  5  4  2  0  0  0  0
  4 11  1  0  0  0  0
  6  5  1  0  0  0  0
  7  6  2  0  0  0  0
  6 30  1  0  0  0  0
  7  8  1  0  0  0  0
 11  7  1  0  0  0  0
  8  9  2  0  0  0  0
  8 10  1  0  0  0  0
 11 12  1  0  0  0  0
 12 13  1  0  0  0  0
 14 13  2  0  0  0  0
 13 18  1  0  0  0  0
 15 14  1  0  0  0  0
 16 15  2  0  0  0  0
 17 16  1  0  0  0  0
 16 19  1  0  0  0  0
 18 17  2  0  0  0  0
 20 19  2  0  0  0  0
 19 24  1  0  0  0  0
 21 20  1  0  0  0  0
 22 21  2  0  0  0  0
 23 22  1  0  0  0  0
 24 23  2  0  0  0  0
 24 25  1  0  0  0  0
 26 25  1  0  0  0  0
 25 29  2  0  0  0  0
 27 26  2  0  0  0  0
 28 27  1  0  0  0  0
 29 28  1  0  0  0  0
 30 31  1  0  0  0  0
 30 32  1  0  0  0  0
 30 33  1  0  0  0  0
M  END
> <Inchi_key>
VTRAEEWXHOVJFV-UHFFFAOYSA-N

> <Source>
Mulliner , Kotsampasakou

> <ID>
EK0391;HT1536

> <H_MFHB>
0

> <CAS>


> <Cholestasis>
0

> <Name>
olmesartan

> <Class>
0


$$$$