

  -INDIGO-08031710012D

 27 29  0  0  0  0  0  0  0  0999 V2000
    2.6193   -2.8922    0.0000 C   0  0  0  0  0  0  0  0  0  0  0  0
    2.7674   -1.3996    0.0000 O   0  0  0  0  0  0  0  0  0  0  0  0
    1.5489   -0.5248    0.0000 C   0  0  0  0  0  0  0  0  0  0  0  0
    2.8301    0.2551    0.0000 N   0  0  0  0  0  0  0  0  0  0  0  0
    4.1464   -0.4647    0.0000 C   0  0  0  0  0  0  0  0  0  0  0  0
    4.1810   -1.9642    0.0000 O   0  0  0  0  0  0  0  0  0  0  0  0
    5.4276    0.3152    0.0000 C   0  0  0  0  0  0  0  0  0  0  0  0
    5.3927    1.8148    0.0000 C   0  0  0  0  0  0  0  0  0  0  0  0
    6.6741    2.5947    0.0000 O   0  0  0  0  0  0  0  0  0  0  0  0
    4.0767    2.5345    0.0000 O   0  0  0  0  0  0  0  0  0  0  0  0
    6.7436   -0.4045    0.0000 C   0  0  0  0  0  0  0  0  0  0  0  0
    6.9348   -1.8922    0.0000 C   0  0  0  0  0  0  0  0  0  0  0  0
    8.4090   -2.1700    0.0000 C   0  0  0  0  0  0  0  0  0  0  0  0
    9.1287   -0.8540    0.0000 S   0  0  0  0  0  0  0  0  0  0  0  0
    8.0994    0.2372    0.0000 C   0  0  0  0  0  0  0  0  0  0  0  0
    0.4310   -1.5252    0.0000 C   0  0  0  0  0  0  0  0  0  0  0  0
   -0.3227   -2.8219    0.0000 S   0  0  0  0  0  0  0  0  0  0  0  0
   -1.7891   -2.5056    0.0000 C   0  0  0  0  0  0  0  0  0  0  0  0
   -3.2584   -2.8067    0.0000 C   0  0  0  0  0  0  0  0  0  0  0  0
   -2.2006   -3.9481    0.0000 C   0  0  0  0  0  0  0  0  0  0  0  0
   -1.9413   -1.0134    0.0000 C   0  0  0  0  0  0  0  0  0  0  0  0
   -0.5692   -0.4074    0.0000 N   0  0  0  0  0  0  0  0  0  0  0  0
    0.5487    0.5929    0.0000 C   0  0  0  0  0  0  0  0  0  0  0  0
    0.6317    2.0906    0.0000 O   0  0  0  0  0  0  0  0  0  0  0  0
   -3.2382   -0.2595    0.0000 C   0  0  0  0  0  0  0  0  0  0  0  0
   -3.2336    1.2405    0.0000 O   0  0  0  0  0  0  0  0  0  0  0  0
   -4.5394   -1.0055    0.0000 O   0  0  0  0  0  0  0  0  0  0  0  0
  1  2  1  0  0  0  0
  2  3  1  0  0  0  0
  3  4  1  0  0  0  0
 16  3  1  0  0  0  0
  3 23  1  0  0  0  0
  4  5  1  0  0  0  0
  5  6  2  0  0  0  0
  5  7  1  0  0  0  0
  7  8  1  0  0  0  0
  7 11  1  0  0  0  0
  8  9  2  0  0  0  0
  8 10  1  0  0  0  0
 12 11  1  0  0  0  0
 11 15  2  0  0  0  0
 13 12  2  0  0  0  0
 14 13  1  0  0  0  0
 15 14  1  0  0  0  0
 17 16  1  0  0  0  0
 16 22  1  0  0  0  0
 18 17  1  0  0  0  0
 18 19  1  0  0  0  0
 18 20  1  0  0  0  0
 21 18  1  0  0  0  0
 22 21  1  0  0  0  0
 21 25  1  0  0  0  0
 23 22  1  0  0  0  0
 23 24  2  0  0  0  0
 25 26  2  0  0  0  0
 25 27  1  0  0  0  0
M  END
> <Inchi_key>
BVCKFLJARNKCSS-UHFFFAOYSA-N

> <Source>
Mulliner

> <ID>
HT1998

> <H_MFHB>
0

> <CAS>


> <Cholestasis>


> <Name>
temocillin

> <Class>
0


$$$$