
  -INDIGO-08031710012D

 38 42  0  0  0  0  0  0  0  0999 V2000
    0.3771    0.2549    0.0000 C   0  0  0  0  0  0  0  0  0  0  0  0
    1.3612   -0.8772    0.0000 C   0  0  0  0  0  0  0  0  0  0  0  0
    1.9712    0.4931    0.0000 C   0  0  0  0  0  0  0  0  0  0  0  0
    3.4630    0.6499    0.0000 C   0  0  0  0  0  0  0  0  0  0  0  0
    4.3445   -0.5636    0.0000 C   0  0  0  0  0  0  0  0  0  0  0  0
    3.7345   -1.9339    0.0000 C   0  0  0  0  0  0  0  0  0  0  0  0
    5.2263   -1.7771    0.0000 C   0  0  0  0  0  0  0  0  0  0  0  0
    4.6163   -3.1474    0.0000 C   0  0  0  0  0  0  0  0  0  0  0  0
    6.1080   -2.9906    0.0000 C   0  0  0  0  0  0  0  0  0  0  0  0
    6.7180   -1.6203    0.0000 C   0  0  0  0  0  0  0  0  0  0  0  0
    8.2098   -1.4635    0.0000 N   0  0  0  0  0  0  0  0  0  0  0  0
    8.8200   -0.0932    0.0000 C   0  0  0  0  0  0  0  0  0  0  0  0
   10.3118    0.0636    0.0000 O   0  0  0  0  0  0  0  0  0  0  0  0
    7.9383    1.1203    0.0000 C   0  0  0  0  0  0  0  0  0  0  0  0
    6.4465    0.9635    0.0000 C   0  0  0  0  0  0  0  0  0  0  0  0
    5.8365   -0.4068    0.0000 C   0  0  0  0  0  0  0  0  0  0  0  0
    4.9547    0.8067    0.0000 C   0  0  0  0  0  0  0  0  0  0  0  0
    2.2427   -2.0907    0.0000 C   0  0  0  0  0  0  0  0  0  0  0  0
    1.3612   -3.3042    0.0000 C   0  0  0  0  0  0  0  0  0  0  0  0
   -0.0655   -2.8408    0.0000 C   0  0  0  0  0  0  0  0  0  0  0  0
   -0.0655   -1.3407    0.0000 C   0  0  0  0  0  0  0  0  0  0  0  0
   -1.2789   -0.4590    0.0000 C   0  0  0  0  0  0  0  0  0  0  0  0
   -1.1223    1.0328    0.0000 O   0  0  0  0  0  0  0  0  0  0  0  0
   -2.6494   -1.0691    0.0000 N   0  0  0  0  0  0  0  0  0  0  0  0
   -3.8629   -0.1874    0.0000 C   0  0  0  0  0  0  0  0  0  0  0  0
   -3.7062    1.3043    0.0000 C   0  0  0  0  0  0  0  0  0  0  0  0
   -4.9196    2.1860    0.0000 C   0  0  0  0  0  0  0  0  0  0  0  0
   -6.2899    1.5759    0.0000 C   0  0  0  0  0  0  0  0  0  0  0  0
   -6.4468    0.0841    0.0000 C   0  0  0  0  0  0  0  0  0  0  0  0
   -5.2331   -0.7975    0.0000 C   0  0  0  0  0  0  0  0  0  0  0  0
   -5.3900   -2.2892    0.0000 C   0  0  0  0  0  0  0  0  0  0  0  0
   -6.8818   -2.1325    0.0000 F   0  0  0  0  0  0  0  0  0  0  0  0
   -5.5469   -3.7811    0.0000 F   0  0  0  0  0  0  0  0  0  0  0  0
   -3.8983   -2.4460    0.0000 F   0  0  0  0  0  0  0  0  0  0  0  0
   -4.7627    3.6777    0.0000 C   0  0  0  0  0  0  0  0  0  0  0  0
   -4.6061    5.1696    0.0000 F   0  0  0  0  0  0  0  0  0  0  0  0
   -3.2710    3.5210    0.0000 F   0  0  0  0  0  0  0  0  0  0  0  0
   -6.2545    3.8345    0.0000 F   0  0  0  0  0  0  0  0  0  0  0  0
  1  2  1  0  0  0  0
  3  2  1  0  0  0  0
 18  2  1  0  0  0  0
  2 21  1  0  0  0  0
  4  3  1  0  0  0  0
  5  4  1  0  0  0  0
  5  6  1  0  0  0  0
 16  5  1  0  0  0  0
  6  7  1  0  0  0  0
  6  8  1  0  0  0  0
 18  6  1  0  0  0  0
  8  9  1  0  0  0  0
  9 10  1  0  0  0  0
 11 10  1  0  0  0  0
 10 16  1  0  0  0  0
 12 11  1  0  0  0  0
 12 13  2  0  0  0  0
 14 12  1  0  0  0  0
 15 14  2  0  0  0  0
 16 15  1  0  0  0  0
 16 17  1  0  0  0  0
 19 18  1  0  0  0  0
 20 19  1  0  0  0  0
 21 20  1  0  0  0  0
 21 22  1  0  0  0  0
 22 23  2  0  0  0  0
 22 24  1  0  0  0  0
 24 25  1  0  0  0  0
 26 25  2  0  0  0  0
 25 30  1  0  0  0  0
 27 26  1  0  0  0  0
 28 27  2  0  0  0  0
 27 35  1  0  0  0  0
 29 28  1  0  0  0  0
 30 29  2  0  0  0  0
 30 31  1  0  0  0  0
 31 32  1  0  0  0  0
 31 33  1  0  0  0  0
 31 34  1  0  0  0  0
 35 36  1  0  0  0  0
 35 37  1  0  0  0  0
 35 38  1  0  0  0  0
M  END
> <Inchi_key>
RCLPMUGNLMWCPX-UHFFFAOYSA-N

> <Source>
Mulliner

> <ID>
HT3920

> <H_MFHB>
0

> <CAS>


> <Cholestasis>


> <Name>


> <Class>
0

$$$$