
  -INDIGO-08031710012D

 27 26  0  0  0  0  0  0  0  0999 V2000
   29.8012   -7.9852    0.0000 C   0  0  0  0  0  0  0  0  0  0  0  0
   28.5021   -7.2352    0.0000 C   0  0  0  0  0  0  0  0  0  0  0  0
   27.2030   -7.9852    0.0000 C   0  0  0  0  0  0  0  0  0  0  0  0
   25.9039   -7.2352    0.0000 C   0  0  0  0  0  0  0  0  0  0  0  0
   24.6053   -7.9852    0.0000 C   0  0  0  0  0  0  0  0  0  0  0  0
   23.3062   -7.2352    0.0000 C   0  0  0  0  0  0  0  0  0  0  0  0
   22.0071   -7.9852    0.0000 C   0  0  0  0  0  0  0  0  0  0  0  0
   20.7080   -7.2352    0.0000 C   0  0  0  0  0  0  0  0  0  0  0  0
   19.4089   -7.9852    0.0000 C   0  0  0  0  0  0  0  0  0  0  0  0
   18.1098   -7.2352    0.0000 C   0  0  0  0  0  0  0  0  0  0  0  0
   16.8111   -7.9852    0.0000 C   0  0  0  0  0  0  0  0  0  0  0  0
   15.5120   -7.2352    0.0000 C   0  0  0  0  0  0  0  0  0  0  0  0
   14.2129   -7.9852    0.0000 C   0  0  0  0  0  0  0  0  0  0  0  0
   12.9138   -7.2352    0.0000 C   0  0  0  0  0  0  0  0  0  0  0  0
   11.6147   -7.9852    0.0000 C   0  0  0  0  0  0  0  0  0  0  0  0
   10.3156   -7.2352    0.0000 C   0  0  0  0  0  0  0  0  0  0  0  0
    9.0165   -7.9852    0.0000 O   0  0  0  0  0  0  0  0  0  0  0  0
    7.7174   -7.2352    0.0000 P   0  0  0  0  0  0  0  0  0  0  0  0
    8.4675   -5.9362    0.0000 O   0  0  0  0  0  0  0  0  0  0  0  0
    6.9678   -8.5343    0.0000 O   0  0  0  0  0  0  0  0  0  0  0  0
    6.4188   -6.4852    0.0000 O   0  0  0  0  0  0  0  0  0  0  0  0
    5.1197   -7.2352    0.0000 C   0  0  0  0  0  0  0  0  0  0  0  0
    3.8206   -6.4852    0.0000 C   0  0  0  0  0  0  0  0  0  0  0  0
    2.5215   -7.2352    0.0000 N   0  0  0  0  0  0  0  0  0  0  0  0
    1.2224   -7.9852    0.0000 C   0  0  0  0  0  0  0  0  0  0  0  0
    3.2716   -8.5343    0.0000 C   0  0  0  0  0  0  0  0  0  0  0  0
    1.7714   -5.9362    0.0000 C   0  0  0  0  0  0  0  0  0  0  0  0
  1  2  1  0  0  0  0
  2  3  1  0  0  0  0
  3  4  1  0  0  0  0
  4  5  1  0  0  0  0
  5  6  1  0  0  0  0
  6  7  1  0  0  0  0
  7  8  1  0  0  0  0
  8  9  1  0  0  0  0
  9 10  1  0  0  0  0
 10 11  1  0  0  0  0
 11 12  1  0  0  0  0
 12 13  1  0  0  0  0
 13 14  1  0  0  0  0
 14 15  1  0  0  0  0
 15 16  1  0  0  0  0
 16 17  1  0  0  0  0
 17 18  1  0  0  0  0
 18 19  2  0  0  0  0
 18 20  1  0  0  0  0
 18 21  1  0  0  0  0
 21 22  1  0  0  0  0
 22 23  1  0  0  0  0
 23 24  1  0  0  0  0
 24 25  1  0  0  0  0
 24 26  1  0  0  0  0
 24 27  1  0  0  0  0
M  CHG  2  20  -1  24   1
M  END
> <Inchi_key>
PQLXHQMOHUQAKB-UHFFFAOYSA-N

> <Source>
Mulliner

> <ID>
HT1403

> <H_MFHB>
0

> <CAS>
58066-85-6

> <Cholestasis>


> <Name>
miltefosine

> <Class>
0

$$$$