
  -INDIGO-08031709442D

 65 67  0  0  0  0  0  0  0  0999 V2000
    2.8057    3.5666    0.0000 O   0  0  0  0  0  0  0  0  0  0  0  0
    4.2908    3.6399    0.0000 C   0  0  0  0  0  0  0  0  0  0  0  0
    5.0138    2.3257    0.0000 C   0  0  0  0  0  0  0  0  0  0  0  0
    5.1107    4.8028    0.0000 C   0  0  0  0  0  0  0  0  0  0  0  0
    6.5874    4.5402    0.0000 C   0  0  0  0  0  0  0  0  0  0  0  0
    4.7319    6.2143    0.0000 C   0  0  0  0  0  0  0  0  0  0  0  0
    5.8267    7.2397    0.0000 O   0  0  0  0  0  0  0  0  0  0  0  0
    3.3341    6.6895    0.0000 C   0  0  0  0  0  0  0  0  0  0  0  0
    2.1770    7.6428    0.0000 C   0  0  0  0  0  0  0  0  0  0  0  0
    2.5925    9.0840    0.0000 C   0  0  0  0  0  0  0  0  0  0  0  0
    1.9258    9.8867    0.0000 C   0  0  0  0  0  0  0  0  0  0  0  0
    2.2137   11.3589    0.0000 C   0  0  0  0  0  0  0  0  0  0  0  0
    0.9528   12.1709    0.0000 C   0  0  0  0  0  0  0  0  0  0  0  0
   -0.6617   12.4957    0.0000 C   0  0  0  0  0  0  0  0  0  0  0  0
   -1.3077   13.8490    0.0000 C   0  0  0  0  0  0  0  0  0  0  0  0
   -2.6538   13.1831    0.0000 C   0  0  0  0  0  0  0  0  0  0  0  0
   -4.1398   14.4073    0.0000 C   0  0  0  0  0  0  0  0  0  0  0  0
   -4.6873   12.9091    0.0000 C   0  0  0  0  0  0  0  0  0  0  0  0
   -6.0084   12.2093    0.0000 C   0  0  0  0  0  0  0  0  0  0  0  0
   -7.6379   11.8830    0.0000 C   0  0  0  0  0  0  0  0  0  0  0  0
   -7.4426   10.6383    0.0000 C   0  0  0  0  0  0  0  0  0  0  0  0
   -8.8970   10.2490    0.0000 C   0  0  0  0  0  0  0  0  0  0  0  0
   -9.3049    8.8052    0.0000 C   0  0  0  0  0  0  0  0  0  0  0  0
   -8.0394    7.9997    0.0000 O   0  0  0  0  0  0  0  0  0  0  0  0
   -6.7094    8.6928    0.0000 C   0  0  0  0  0  0  0  0  0  0  0  0
   -6.6445   10.1915    0.0000 O   0  0  0  0  0  0  0  0  0  0  0  0
   -5.3141   10.8846    0.0000 C   0  0  0  0  0  0  0  0  0  0  0  0
   -5.2492   12.3833    0.0000 C   0  0  0  0  0  0  0  0  0  0  0  0
   -4.0487   10.0790    0.0000 C   0  0  0  0  0  0  0  0  0  0  0  0
   -2.7186   10.7722    0.0000 O   0  0  0  0  0  0  0  0  0  0  0  0
   -4.1136    8.5806    0.0000 C   0  0  0  0  0  0  0  0  0  0  0  0
   -2.8481    7.7751    0.0000 N   0  0  0  0  0  0  0  0  0  0  0  0
   -5.4439    7.8875    0.0000 C   0  0  0  0  0  0  0  0  0  0  0  0
   -5.5088    6.3888    0.0000 O   0  0  0  0  0  0  0  0  0  0  0  0
  -10.4460    7.8197    0.0000 C   0  0  0  0  0  0  0  0  0  0  0  0
  -10.5355    6.4991    0.0000 C   0  0  0  0  0  0  0  0  0  0  0  0
   -9.7044    5.2906    0.0000 O   0  0  0  0  0  0  0  0  0  0  0  0
  -10.3577    3.9254    0.0000 C   0  0  0  0  0  0  0  0  0  0  0  0
   -8.8669    3.7588    0.0000 O   0  0  0  0  0  0  0  0  0  0  0  0
  -11.8358    3.8034    0.0000 C   0  0  0  0  0  0  0  0  0  0  0  0
  -12.6972    5.0512    0.0000 C   0  0  0  0  0  0  0  0  0  0  0  0
  -14.1931    4.9395    0.0000 O   0  0  0  0  0  0  0  0  0  0  0  0
  -12.0317    6.4096    0.0000 C   0  0  0  0  0  0  0  0  0  0  0  0
  -12.8634    7.6579    0.0000 C   0  0  0  0  0  0  0  0  0  0  0  0
  -12.1982    9.0024    0.0000 O   0  0  0  0  0  0  0  0  0  0  0  0
  -14.3603    7.5619    0.0000 O   0  0  0  0  0  0  0  0  0  0  0  0
  -10.0279    2.6961    0.0000 C   0  0  0  0  0  0  0  0  0  0  0  0
  -10.4230    1.2982    0.0000 C   0  0  0  0  0  0  0  0  0  0  0  0
  -11.8591    0.8652    0.0000 O   0  0  0  0  0  0  0  0  0  0  0  0
   -9.2099    0.2554    0.0000 C   0  0  0  0  0  0  0  0  0  0  0  0
   -9.3819   -1.2347    0.0000 O   0  0  0  0  0  0  0  0  0  0  0  0
   -7.8751    0.9509    0.0000 C   0  0  0  0  0  0  0  0  0  0  0  0
   -6.5892    0.2561    0.0000 C   0  0  0  0  0  0  0  0  0  0  0  0
   -5.2854    1.0402    0.0000 C   0  0  0  0  0  0  0  0  0  0  0  0
   -5.3215    2.5398    0.0000 O   0  0  0  0  0  0  0  0  0  0  0  0
   -3.9847    0.3404    0.0000 C   0  0  0  0  0  0  0  0  0  0  0  0
   -2.6768    1.1020    0.0000 C   0  0  0  0  0  0  0  0  0  0  0  0
   -2.7180    2.6014    0.0000 O   0  0  0  0  0  0  0  0  0  0  0  0
   -1.3864    0.4425    0.0000 C   0  0  0  0  0  0  0  0  0  0  0  0
   -0.0640    0.8347    0.0000 C   0  0  0  0  0  0  0  0  0  0  0  0
    0.8847   -0.3275    0.0000 O   0  0  0  0  0  0  0  0  0  0  0  0
    0.6254    2.1269    0.0000 C   0  0  0  0  0  0  0  0  0  0  0  0
    2.1185    2.2343    0.0000 C   0  0  0  0  0  0  0  0  0  0  0  0
    2.9448    0.9824    0.0000 O   0  0  0  0  0  0  0  0  0  0  0  0
    2.6040    5.3794    0.0000 C   0  0  0  0  0  0  0  0  0  0  0  0
  2  1  1  0  0  0  0
  1 63  1  0  0  0  0
  2  3  1  0  0  0  0
  4  2  1  0  0  0  0
  4  5  1  0  0  0  0
  6  4  1  0  0  0  0
  6  7  1  0  0  0  0
  8  6  1  0  0  0  0
  9  8  1  0  0  0  0
  8 65  1  0  0  0  0
 10  9  2  0  0  0  0
 11 10  1  0  0  0  0
 12 11  2  0  0  0  0
 13 12  1  0  0  0  0
 14 13  1  0  0  0  0
 15 14  1  0  0  0  0
 16 15  2  0  0  0  0
 17 16  1  0  0  0  0
 18 17  2  0  0  0  0
 19 18  1  0  0  0  0
 20 19  2  0  0  0  0
 21 20  1  0  0  0  0
 22 21  2  0  0  0  0
 23 22  1  0  0  0  0
 23 24  1  0  0  0  0
 35 23  1  0  0  0  0
 24 25  1  0  0  0  0
 26 25  1  0  0  0  0
 25 33  1  0  0  0  0
 27 26  1  0  0  0  0
 27 28  1  0  0  0  0
 29 27  1  0  0  0  0
 29 30  1  0  0  0  0
 31 29  1  0  0  0  0
 31 32  1  0  0  0  0
 33 31  1  0  0  0  0
 33 34  1  0  0  0  0
 36 35  1  0  0  0  0
 36 37  1  0  0  0  0
 43 36  1  0  0  0  0
 37 38  1  0  0  0  0
 38 39  1  0  0  0  0
 38 40  1  0  0  0  0
 47 38  1  0  0  0  0
 40 41  1  0  0  0  0
 41 42  1  0  0  0  0
 41 43  1  0  0  0  0
 43 44  1  0  0  0  0
 44 45  1  0  0  0  0
 44 46  2  0  0  0  0
 48 47  1  0  0  0  0
 48 49  1  0  0  0  0
 50 48  1  0  0  0  0
 50 51  1  0  0  0  0
 52 50  1  0  0  0  0
 53 52  1  0  0  0  0
 54 53  1  0  0  0  0
 54 55  1  0  0  0  0
 56 54  1  0  0  0  0
 57 56  1  0  0  0  0
 57 58  1  0  0  0  0
 59 57  1  0  0  0  0
 60 59  1  0  0  0  0
 60 61  1  0  0  0  0
 62 60  1  0  0  0  0
 63 62  1  0  0  0  0
 63 64  2  0  0  0  0
M  END
> <Inchi_key>
VQOXZBDYSJBXMA-HWEHLMELSA-N

> <Source>
Kotsampasakou

> <ID>
EK0389

> <H_MFHB>


> <CAS>


> <Cholestasis>
0

> <Name>
nystatin

> <Class>
0

$$$$