

  -INDIGO-08031710012D

 17 18  0  0  0  0  0  0  0  0999 V2000
   -0.6049   -6.2133    0.0000 C   0  0  0  0  0  0  0  0  0  0  0  0
   -0.7378   -4.7193    0.0000 C   0  0  0  0  0  0  0  0  0  0  0  0
   -2.0983   -4.0875    0.0000 C   0  0  0  0  0  0  0  0  0  0  0  0
    0.4895   -3.8570    0.0000 C   0  0  0  0  0  0  0  0  0  0  0  0
    0.5134   -2.3572    0.0000 C   0  0  0  0  0  0  0  0  0  0  0  0
   -0.6860   -1.4563    0.0000 C   0  0  0  0  0  0  0  0  0  0  0  0
    1.9471   -1.9164    0.0000 N   0  0  0  0  0  0  0  0  0  0  0  0
    2.4333   -0.4973    0.0000 C   0  0  0  0  0  0  0  0  0  0  0  0
    2.8093   -3.1438    0.0000 N   0  0  0  0  0  0  0  0  0  0  0  0
    1.9086   -4.3431    0.0000 C   0  0  0  0  0  0  0  0  0  0  0  0
    2.3494   -5.7769    0.0000 O   0  0  0  0  0  0  0  0  0  0  0  0
    4.3092   -3.1676    0.0000 C   0  0  0  0  0  0  0  0  0  0  0  0
    5.0385   -4.4784    0.0000 C   0  0  0  0  0  0  0  0  0  0  0  0
    6.5384   -4.5022    0.0000 C   0  0  0  0  0  0  0  0  0  0  0  0
    7.3089   -3.2153    0.0000 C   0  0  0  0  0  0  0  0  0  0  0  0
    6.5795   -1.9045    0.0000 C   0  0  0  0  0  0  0  0  0  0  0  0
    5.0798   -1.8806    0.0000 C   0  0  0  0  0  0  0  0  0  0  0  0
  1  2  1  0  0  0  0
  2  3  1  0  0  0  0
  2  4  1  0  0  0  0
  5  4  2  0  0  0  0
  4 10  1  0  0  0  0
  5  6  1  0  0  0  0
  7  5  1  0  0  0  0
  7  8  1  0  0  0  0
  9  7  1  0  0  0  0
 10  9  1  0  0  0  0
  9 12  1  0  0  0  0
 10 11  2  0  0  0  0
 13 12  2  0  0  0  0
 12 17  1  0  0  0  0
 14 13  1  0  0  0  0
 15 14  2  0  0  0  0
 16 15  1  0  0  0  0
 17 16  2  0  0  0  0
M  END
> <Inchi_key>
PXWLVJLKJGVOKE-UHFFFAOYSA-N

> <Source>
Mulliner

> <ID>
HT3006

> <H_MFHB>
0

> <CAS>


> <Cholestasis>


> <Name>


> <Class>
0


$$$$