

  -INDIGO-08031710012D

 28 30  0  0  0  0  0  0  0  0999 V2000
    1.1446   -4.2717    0.0000 C   0  0  0  0  0  0  0  0  0  0  0  0
    2.4436   -3.5218    0.0000 O   0  0  0  0  0  0  0  0  0  0  0  0
    2.4436   -2.0217    0.0000 C   0  0  0  0  0  0  0  0  0  0  0  0
    3.9436   -2.0217    0.0000 C   0  0  0  0  0  0  0  0  0  0  0  0
    4.6936   -0.7227    0.0000 O   0  0  0  0  0  0  0  0  0  0  0  0
    6.1936   -0.7227    0.0000 C   0  0  0  0  0  0  0  0  0  0  0  0
    6.9436   -2.0217    0.0000 N   0  0  0  0  0  0  0  0  0  0  0  0
    8.4436   -2.0217    0.0000 C   0  0  0  0  0  0  0  0  0  0  0  0
    9.1936   -3.3208    0.0000 C   0  0  0  0  0  0  0  0  0  0  0  0
    9.1936   -0.7227    0.0000 C   0  0  0  0  0  0  0  0  0  0  0  0
    8.4436    0.5763    0.0000 C   0  0  0  0  0  0  0  0  0  0  0  0
    9.1936    1.8754    0.0000 C   0  0  0  0  0  0  0  0  0  0  0  0
    6.9436    0.5763    0.0000 N   0  0  0  0  0  0  0  0  0  0  0  0
    4.6936   -3.3208    0.0000 C   0  0  0  0  0  0  0  0  0  0  0  0
    3.9436   -4.6198    0.0000 O   0  0  0  0  0  0  0  0  0  0  0  0
    6.1936   -3.3208    0.0000 O   0  0  0  0  0  0  0  0  0  0  0  0
    2.4436   -0.5217    0.0000 C   0  0  0  0  0  0  0  0  0  0  0  0
    1.1446    0.2283    0.0000 C   0  0  0  0  0  0  0  0  0  0  0  0
    1.1446    1.7283    0.0000 C   0  0  0  0  0  0  0  0  0  0  0  0
    2.4436    2.4783    0.0000 C   0  0  0  0  0  0  0  0  0  0  0  0
    3.7428    1.7283    0.0000 C   0  0  0  0  0  0  0  0  0  0  0  0
    3.7428    0.2283    0.0000 C   0  0  0  0  0  0  0  0  0  0  0  0
    0.9436   -2.0217    0.0000 C   0  0  0  0  0  0  0  0  0  0  0  0
    0.1936   -0.7227    0.0000 C   0  0  0  0  0  0  0  0  0  0  0  0
   -1.3064   -0.7227    0.0000 C   0  0  0  0  0  0  0  0  0  0  0  0
   -2.0564   -2.0217    0.0000 C   0  0  0  0  0  0  0  0  0  0  0  0
   -1.3064   -3.3208    0.0000 C   0  0  0  0  0  0  0  0  0  0  0  0
    0.1936   -3.3208    0.0000 C   0  0  0  0  0  0  0  0  0  0  0  0
  1  2  1  0  0  0  0
  2  3  1  0  0  0  0
  3  4  1  0  0  0  0
  3 17  1  0  0  0  0
  3 23  1  0  0  0  0
  4  5  1  0  0  0  0
  4 14  1  0  0  0  0
  5  6  1  0  0  0  0
  7  6  2  0  0  0  0
  6 13  1  0  0  0  0
  8  7  1  0  0  0  0
  8  9  1  0  0  0  0
 10  8  2  0  0  0  0
 11 10  1  0  0  0  0
 11 12  1  0  0  0  0
 13 11  2  0  0  0  0
 14 15  2  0  0  0  0
 14 16  1  0  0  0  0
 18 17  2  0  0  0  0
 17 22  1  0  0  0  0
 19 18  1  0  0  0  0
 20 19  2  0  0  0  0
 21 20  1  0  0  0  0
 22 21  2  0  0  0  0
 24 23  2  0  0  0  0
 23 28  1  0  0  0  0
 25 24  1  0  0  0  0
 26 25  2  0  0  0  0
 27 26  1  0  0  0  0
 28 27  2  0  0  0  0
M  END
> <Inchi_key>
OUJTZYPIHDYQMC-UHFFFAOYSA-N

> <Source>
Mulliner , Kotsampasakou

> <ID>
EK0023;HT0124

> <H_MFHB>
0

> <CAS>


> <Cholestasis>
0

> <Name>
ambrisentan

> <Class>
0


$$$$