

  -INDIGO-08031710012D

 19 20  0  0  0  0  0  0  0  0999 V2000
    2.3220    2.3220    0.0000 C   0  0  0  0  0  0  0  0  0  0  0  0
    2.3220    0.8220    0.0000 C   0  0  0  0  0  0  0  0  0  0  0  0
    3.6210    0.0721    0.0000 C   0  0  0  0  0  0  0  0  0  0  0  0
    4.9200    0.8220    0.0000 O   0  0  0  0  0  0  0  0  0  0  0  0
    3.6210   -1.4279    0.0000 O   0  0  0  0  0  0  0  0  0  0  0  0
    4.9200   -2.1780    0.0000 C   0  0  0  0  0  0  0  0  0  0  0  0
    5.6700   -0.8790    0.0000 C   0  0  0  0  0  0  0  0  0  0  0  0
    7.1700   -0.8790    0.0000 C   0  0  0  0  0  0  0  0  0  0  0  0
    7.9200   -2.1780    0.0000 N   0  0  0  0  0  0  0  0  0  0  0  0
    9.4200   -2.1780    0.0000 C   0  0  0  0  0  0  0  0  0  0  0  0
    7.1700   -3.4772    0.0000 C   0  0  0  0  0  0  0  0  0  0  0  0
    5.6700   -3.4772    0.0000 C   0  0  0  0  0  0  0  0  0  0  0  0
    4.9200   -4.7761    0.0000 C   0  0  0  0  0  0  0  0  0  0  0  0
    3.6210   -2.9279    0.0000 C   0  0  0  0  0  0  0  0  0  0  0  0
    2.3220   -2.1780    0.0000 C   0  0  0  0  0  0  0  0  0  0  0  0
    1.0229   -2.9279    0.0000 C   0  0  0  0  0  0  0  0  0  0  0  0
    1.0229   -4.4279    0.0000 C   0  0  0  0  0  0  0  0  0  0  0  0
    2.3220   -5.1780    0.0000 C   0  0  0  0  0  0  0  0  0  0  0  0
    3.6210   -4.4279    0.0000 C   0  0  0  0  0  0  0  0  0  0  0  0
  1  2  1  0  0  0  0
  2  3  1  0  0  0  0
  3  4  2  0  0  0  0
  3  5  1  0  0  0  0
  5  6  1  0  0  0  0
  7  6  1  0  0  0  0
  6 12  1  0  0  0  0
  6 14  1  0  0  0  0
  8  7  1  0  0  0  0
  9  8  1  0  0  0  0
  9 10  1  0  0  0  0
 11  9  1  0  0  0  0
 12 11  1  0  0  0  0
 12 13  1  0  0  0  0
 15 14  2  0  0  0  0
 14 19  1  0  0  0  0
 16 15  1  0  0  0  0
 17 16  2  0  0  0  0
 18 17  1  0  0  0  0
 19 18  2  0  0  0  0
M  END
> <Inchi_key>
UVAZQQHAVMNMHE-UHFFFAOYSA-N

> <Source>
Mulliner

> <ID>
HT3153

> <H_MFHB>
0

> <CAS>


> <Cholestasis>


> <Name>


> <Class>
0


$$$$