
  -INDIGO-08031710012D

 31 33  0  0  0  0  0  0  0  0999 V2000
   10.0494   -4.3043    0.0000 C   0  0  0  0  0  0  0  0  0  0  0  0
   10.0494   -5.8043    0.0000 N   0  0  0  0  0  0  0  0  0  0  0  0
    8.7504   -6.5543    0.0000 C   0  0  0  0  0  0  0  0  0  0  0  0
    7.4514   -5.8043    0.0000 C   0  0  0  0  0  0  0  0  0  0  0  0
    7.4514   -4.3043    0.0000 O   0  0  0  0  0  0  0  0  0  0  0  0
    6.1524   -6.5543    0.0000 C   0  0  0  0  0  0  0  0  0  0  0  0
    4.8533   -5.8043    0.0000 O   0  0  0  0  0  0  0  0  0  0  0  0
    3.5541   -6.5543    0.0000 C   0  0  0  0  0  0  0  0  0  0  0  0
    3.5541   -8.0543    0.0000 C   0  0  0  0  0  0  0  0  0  0  0  0
    4.8533   -8.8043    0.0000 N   0  0  0  0  0  0  0  0  0  0  0  0
    2.2553   -8.8043    0.0000 C   0  0  0  0  0  0  0  0  0  0  0  0
    0.9563   -8.0543    0.0000 C   0  0  0  0  0  0  0  0  0  0  0  0
   -0.3429   -8.8043    0.0000 N   0  0  0  0  0  0  0  0  0  0  0  0
    0.9563   -6.5543    0.0000 C   0  0  0  0  0  0  0  0  0  0  0  0
   -0.3429   -5.8043    0.0000 O   0  0  0  0  0  0  0  0  0  0  0  0
   -1.6420   -6.5543    0.0000 C   0  0  0  0  0  0  0  0  0  0  0  0
   -1.6420   -8.0543    0.0000 O   0  0  0  0  0  0  0  0  0  0  0  0
   -2.9410   -8.8043    0.0000 C   0  0  0  0  0  0  0  0  0  0  0  0
   -4.2400   -8.0543    0.0000 C   0  0  0  0  0  0  0  0  0  0  0  0
   -4.2400   -6.5543    0.0000 C   0  0  0  0  0  0  0  0  0  0  0  0
   -2.9410   -5.8043    0.0000 C   0  0  0  0  0  0  0  0  0  0  0  0
   -2.9410   -4.3043    0.0000 N   0  0  0  0  0  0  0  0  0  0  0  0
   -2.9410  -10.3043    0.0000 C   0  0  0  0  0  0  0  0  0  0  0  0
   -4.2400  -11.0543    0.0000 N   0  0  0  0  0  0  0  0  0  0  0  0
    2.2553   -5.8043    0.0000 C   0  0  0  0  0  0  0  0  0  0  0  0
    2.2553   -4.3043    0.0000 O   0  0  0  0  0  0  0  0  0  0  0  0
    6.1524   -8.0543    0.0000 O   0  0  0  0  0  0  0  0  0  0  0  0
    7.4514   -8.8043    0.0000 C   0  0  0  0  0  0  0  0  0  0  0  0
    8.7504   -8.0543    0.0000 C   0  0  0  0  0  0  0  0  0  0  0  0
    9.5004   -9.3534    0.0000 C   0  0  0  0  0  0  0  0  0  0  0  0
   10.2504   -8.0543    0.0000 O   0  0  0  0  0  0  0  0  0  0  0  0
  1  2  1  0  0  0  0
  2  3  1  0  0  0  0
  4  3  1  0  0  0  0
  3 29  1  0  0  0  0
  4  5  1  0  0  0  0
  6  4  1  0  0  0  0
  6  7  1  0  0  0  0
 27  6  1  0  0  0  0
  7  8  1  0  0  0  0
  9  8  1  0  0  0  0
  8 25  1  0  0  0  0
  9 10  1  0  0  0  0
 11  9  1  0  0  0  0
 12 11  1  0  0  0  0
 12 13  1  0  0  0  0
 14 12  1  0  0  0  0
 14 15  1  0  0  0  0
 25 14  1  0  0  0  0
 15 16  1  0  0  0  0
 17 16  1  0  0  0  0
 16 21  1  0  0  0  0
 18 17  1  0  0  0  0
 19 18  2  0  0  0  0
 18 23  1  0  0  0  0
 20 19  1  0  0  0  0
 21 20  1  0  0  0  0
 21 22  1  0  0  0  0
 23 24  1  0  0  0  0
 25 26  1  0  0  0  0
 28 27  1  0  0  0  0
 29 28  1  0  0  0  0
 29 30  1  0  0  0  0
 29 31  1  0  0  0  0
M  END
> <Inchi_key>
URWAJWIAIPFPJE-UHFFFAOYSA-N

> <Source>
Mulliner

> <ID>
HT3834

> <H_MFHB>
0

> <CAS>


> <Cholestasis>


> <Name>


> <Class>
0

$$$$