

  -INDIGO-08031710012D

 35 39  0  0  0  0  0  0  0  0999 V2000
   -0.1521    0.1986    0.0000 C   0  0  0  0  0  0  0  0  0  0  0  0
    0.2398    1.6466    0.0000 C   0  0  0  0  0  0  0  0  0  0  0  0
   -0.8181    2.7099    0.0000 O   0  0  0  0  0  0  0  0  0  0  0  0
    1.6897    2.0312    0.0000 O   0  0  0  0  0  0  0  0  0  0  0  0
    2.0817    3.4790    0.0000 C   0  0  0  0  0  0  0  0  0  0  0  0
    3.5313    3.8636    0.0000 C   0  0  0  0  0  0  0  0  0  0  0  0
    4.5895    2.8003    0.0000 O   0  0  0  0  0  0  0  0  0  0  0  0
    3.9233    5.3115    0.0000 C   0  0  0  0  0  0  0  0  0  0  0  0
    2.5516    4.7049    0.0000 O   0  0  0  0  0  0  0  0  0  0  0  0
    1.5505    5.8221    0.0000 C   0  0  0  0  0  0  0  0  0  0  0  0
    0.2069    6.4888    0.0000 C   0  0  0  0  0  0  0  0  0  0  0  0
    0.3387    4.9382    0.0000 C   0  0  0  0  0  0  0  0  0  0  0  0
    2.3038    7.1193    0.0000 O   0  0  0  0  0  0  0  0  0  0  0  0
    3.7703    6.8037    0.0000 C   0  0  0  0  0  0  0  0  0  0  0  0
    5.1420    7.4104    0.0000 C   0  0  0  0  0  0  0  0  0  0  0  0
    6.1429    6.2931    0.0000 C   0  0  0  0  0  0  0  0  0  0  0  0
    7.6429    6.2894    0.0000 C   0  0  0  0  0  0  0  0  0  0  0  0
    8.3964    7.5865    0.0000 C   0  0  0  0  0  0  0  0  0  0  0  0
    9.8964    7.5826    0.0000 C   0  0  0  0  0  0  0  0  0  0  0  0
   10.6494    8.8799    0.0000 F   0  0  0  0  0  0  0  0  0  0  0  0
   10.6429    6.2818    0.0000 C   0  0  0  0  0  0  0  0  0  0  0  0
   12.1429    6.2780    0.0000 C   0  0  0  0  0  0  0  0  0  0  0  0
   12.8897    4.9771    0.0000 C   0  0  0  0  0  0  0  0  0  0  0  0
   14.3897    4.9733    0.0000 O   0  0  0  0  0  0  0  0  0  0  0  0
   12.1364    3.6799    0.0000 C   0  0  0  0  0  0  0  0  0  0  0  0
   10.6364    3.6837    0.0000 C   0  0  0  0  0  0  0  0  0  0  0  0
    9.8897    4.9845    0.0000 C   0  0  0  0  0  0  0  0  0  0  0  0
    9.1364    3.6875    0.0000 C   0  0  0  0  0  0  0  0  0  0  0  0
    8.3897    4.9884    0.0000 C   0  0  0  0  0  0  0  0  0  0  0  0
    6.8896    4.9922    0.0000 F   0  0  0  0  0  0  0  0  0  0  0  0
    7.6364    3.6913    0.0000 C   0  0  0  0  0  0  0  0  0  0  0  0
    8.3832    2.3903    0.0000 O   0  0  0  0  0  0  0  0  0  0  0  0
    6.1364    3.6950    0.0000 C   0  0  0  0  0  0  0  0  0  0  0  0
    5.3896    4.9961    0.0000 C   0  0  0  0  0  0  0  0  0  0  0  0
    4.9979    3.5481    0.0000 C   0  0  0  0  0  0  0  0  0  0  0  0
  1  2  1  0  0  0  0
  2  3  2  0  0  0  0
  2  4  1  0  0  0  0
  4  5  1  0  0  0  0
  5  6  1  0  0  0  0
  6  7  2  0  0  0  0
  6  8  1  0  0  0  0
  9  8  1  0  0  0  0
 14  8  1  0  0  0  0
  8 34  1  0  0  0  0
 10  9  1  0  0  0  0
 10 11  1  0  0  0  0
 10 12  1  0  0  0  0
 13 10  1  0  0  0  0
 14 13  1  0  0  0  0
 15 14  1  0  0  0  0
 16 15  1  0  0  0  0
 17 16  1  0  0  0  0
 16 34  1  0  0  0  0
 18 17  1  0  0  0  0
 17 29  1  0  0  0  0
 19 18  1  0  0  0  0
 19 20  1  0  0  0  0
 21 19  1  0  0  0  0
 22 21  2  0  0  0  0
 21 27  1  0  0  0  0
 23 22  1  0  0  0  0
 23 24  2  0  0  0  0
 25 23  1  0  0  0  0
 26 25  2  0  0  0  0
 27 26  1  0  0  0  0
 27 28  1  0  0  0  0
 29 27  1  0  0  0  0
 29 30  1  0  0  0  0
 31 29  1  0  0  0  0
 31 32  1  0  0  0  0
 33 31  1  0  0  0  0
 34 33  1  0  0  0  0
 34 35  1  0  0  0  0
M  END
> <Inchi_key>
WJOHZNCJWYWUJD-UHFFFAOYSA-N

> <Source>
Mulliner , Kotsampasakou

> <ID>
EK0223;HT0905

> <H_MFHB>
0

> <CAS>


> <Cholestasis>
0

> <Name>
fluocinonide

> <Class>
0


$$$$