
  -INDIGO-08031710012D

 19 20  0  0  0  0  0  0  0  0999 V2000
    3.9903   -1.7529    0.0000 C   0  0  0  0  0  0  0  0  0  0  0  0
    2.6914   -1.0029    0.0000 C   0  0  0  0  0  0  0  0  0  0  0  0
    1.3922   -1.7529    0.0000 C   0  0  0  0  0  0  0  0  0  0  0  0
    0.0932   -1.0029    0.0000 C   0  0  0  0  0  0  0  0  0  0  0  0
    0.0932    0.4971    0.0000 C   0  0  0  0  0  0  0  0  0  0  0  0
   -1.2058    1.2471    0.0000 O   0  0  0  0  0  0  0  0  0  0  0  0
    1.3922    1.2471    0.0000 C   0  0  0  0  0  0  0  0  0  0  0  0
    1.3922    2.7471    0.0000 C   0  0  0  0  0  0  0  0  0  0  0  0
    2.6914    0.4971    0.0000 C   0  0  0  0  0  0  0  0  0  0  0  0
    3.9903    1.2471    0.0000 C   0  0  0  0  0  0  0  0  0  0  0  0
    5.2893    0.4971    0.0000 C   0  0  0  0  0  0  0  0  0  0  0  0
    6.6597    1.1072    0.0000 N   0  0  0  0  0  0  0  0  0  0  0  0
    7.6634   -0.0075    0.0000 C   0  0  0  0  0  0  0  0  0  0  0  0
    6.9134   -1.3066    0.0000 C   0  0  0  0  0  0  0  0  0  0  0  0
    5.4462   -0.9947    0.0000 N   0  0  0  0  0  0  0  0  0  0  0  0
   -1.2058   -1.7529    0.0000 C   0  0  0  0  0  0  0  0  0  0  0  0
   -0.4557   -3.0519    0.0000 C   0  0  0  0  0  0  0  0  0  0  0  0
   -1.9558   -0.4539    0.0000 C   0  0  0  0  0  0  0  0  0  0  0  0
   -2.5049   -2.5029    0.0000 C   0  0  0  0  0  0  0  0  0  0  0  0
  1  2  1  0  0  0  0
  3  2  2  0  0  0  0
  2  9  1  0  0  0  0
  4  3  1  0  0  0  0
  5  4  2  0  0  0  0
  4 16  1  0  0  0  0
  5  6  1  0  0  0  0
  7  5  1  0  0  0  0
  7  8  1  0  0  0  0
  9  7  2  0  0  0  0
  9 10  1  0  0  0  0
 10 11  1  0  0  0  0
 12 11  2  0  0  0  0
 11 15  1  0  0  0  0
 13 12  1  0  0  0  0
 14 13  1  0  0  0  0
 15 14  1  0  0  0  0
 16 17  1  0  0  0  0
 16 18  1  0  0  0  0
 16 19  1  0  0  0  0
M  END
> <Inchi_key>
WYWIFABBXFUGLM-UHFFFAOYSA-N

> <Source>
Mulliner

> <ID>
HT1568

> <H_MFHB>
0

> <CAS>


> <Cholestasis>


> <Name>
oxymetazoline hydrochloride;oxymetazoline

> <Class>
0

$$$$