

  -INDIGO-08031710012D

 20 22  0  0  0  0  0  0  0  0999 V2000
    0.1052    0.1254    0.0000 C   0  0  0  0  0  0  0  0  0  0  0  0
    1.6044    0.0751    0.0000 O   0  0  0  0  0  0  0  0  0  0  0  0
    2.3103   -1.2484    0.0000 C   0  0  0  0  0  0  0  0  0  0  0  0
    1.4250   -2.4593    0.0000 C   0  0  0  0  0  0  0  0  0  0  0  0
    1.8188   -3.9066    0.0000 C   0  0  0  0  0  0  0  0  0  0  0  0
    0.6150   -4.8015    0.0000 C   0  0  0  0  0  0  0  0  0  0  0  0
    0.7881   -6.2915    0.0000 C   0  0  0  0  0  0  0  0  0  0  0  0
    2.1650   -6.8866    0.0000 C   0  0  0  0  0  0  0  0  0  0  0  0
    3.3688   -5.9917    0.0000 C   0  0  0  0  0  0  0  0  0  0  0  0
    3.1958   -4.5017    0.0000 C   0  0  0  0  0  0  0  0  0  0  0  0
    4.5199   -3.7969    0.0000 C   0  0  0  0  0  0  0  0  0  0  0  0
    5.7299   -4.6834    0.0000 C   0  0  0  0  0  0  0  0  0  0  0  0
    7.1026   -4.0786    0.0000 C   0  0  0  0  0  0  0  0  0  0  0  0
    8.3127   -4.9651    0.0000 O   0  0  0  0  0  0  0  0  0  0  0  0
    7.2653   -2.5875    0.0000 O   0  0  0  0  0  0  0  0  0  0  0  0
    4.7917   -2.3209    0.0000 C   0  0  0  0  0  0  0  0  0  0  0  0
    6.1733   -1.7365    0.0000 C   0  0  0  0  0  0  0  0  0  0  0  0
    6.0444   -0.2422    0.0000 C   0  0  0  0  0  0  0  0  0  0  0  0
    4.5834    0.0972    0.0000 S   0  0  0  0  0  0  0  0  0  0  0  0
    3.8091   -1.1876    0.0000 C   0  0  0  0  0  0  0  0  0  0  0  0
  1  2  1  0  0  0  0
  2  3  1  0  0  0  0
  4  3  2  0  0  0  0
  3 20  1  0  0  0  0
  5  4  1  0  0  0  0
  6  5  2  0  0  0  0
  5 10  1  0  0  0  0
  7  6  1  0  0  0  0
  8  7  2  0  0  0  0
  9  8  1  0  0  0  0
 10  9  2  0  0  0  0
 11 10  1  0  0  0  0
 11 12  2  0  0  0  0
 16 11  1  0  0  0  0
 12 13  1  0  0  0  0
 13 14  2  0  0  0  0
 13 15  1  0  0  0  0
 17 16  1  0  0  0  0
 16 20  2  0  0  0  0
 18 17  2  0  0  0  0
 19 18  1  0  0  0  0
 20 19  1  0  0  0  0
M  END
> <Inchi_key>
XIKRQPKFOKKGGW-LCYFTJDESA-N

> <Source>
Mulliner

> <ID>
HT1151

> <H_MFHB>
0

> <CAS>


> <Cholestasis>


> <Name>
ix 207-887

> <Class>
0


$$$$