
  -INDIGO-08031710012D

 13 12  0  0  0  0  0  0  0  0999 V2000
    9.0657   -2.4291    0.0000 O   0  0  0  0  0  0  0  0  0  0  0  0
    7.7665   -1.6791    0.0000 C   0  0  0  0  0  0  0  0  0  0  0  0
    6.4677   -2.4291    0.0000 C   0  0  0  0  0  0  0  0  0  0  0  0
    6.4677   -3.9291    0.0000 O   0  0  0  0  0  0  0  0  0  0  0  0
    5.1686   -1.6791    0.0000 C   0  0  0  0  0  0  0  0  0  0  0  0
    5.1686   -0.1791    0.0000 O   0  0  0  0  0  0  0  0  0  0  0  0
    3.8695   -2.4291    0.0000 C   0  0  0  0  0  0  0  0  0  0  0  0
    3.8695   -3.9291    0.0000 O   0  0  0  0  0  0  0  0  0  0  0  0
    2.5704   -1.6791    0.0000 C   0  0  0  0  0  0  0  0  0  0  0  0
    2.5704   -0.1791    0.0000 O   0  0  0  0  0  0  0  0  0  0  0  0
    1.2716   -2.4291    0.0000 C   0  0  0  0  0  0  0  0  0  0  0  0
    1.2716   -3.9291    0.0000 O   0  0  0  0  0  0  0  0  0  0  0  0
   -0.0276   -1.6791    0.0000 O   0  0  0  0  0  0  0  0  0  0  0  0
  1  2  1  0  0  0  0
  2  3  1  0  0  0  0
  3  4  1  0  0  0  0
  3  5  1  0  0  0  0
  5  6  1  0  0  0  0
  5  7  1  0  0  0  0
  7  8  1  0  0  0  0
  7  9  1  0  0  0  0
  9 10  1  0  0  0  0
  9 11  1  0  0  0  0
 11 12  2  0  0  0  0
 11 13  1  0  0  0  0
M  END
> <Inchi_key>
RGHNJXZEOKUKBD-UHFFFAOYSA-N

> <Source>
Mulliner

> <ID>
HT0869

> <H_MFHB>
0

> <CAS>


> <Cholestasis>


> <Name>
ferrous gluconate;sodium ferric gluconate

> <Class>
0

$$$$