
  -INDIGO-08031710012D

 19 20  0  0  0  0  0  0  0  0999 V2000
   -2.6911   -7.4278    0.0000 C   0  0  0  0  0  0  0  0  0  0  0  0
   -2.6911   -5.9278    0.0000 C   0  0  0  0  0  0  0  0  0  0  0  0
   -3.9900   -5.1778    0.0000 C   0  0  0  0  0  0  0  0  0  0  0  0
   -3.9900   -3.6778    0.0000 C   0  0  0  0  0  0  0  0  0  0  0  0
   -2.6911   -2.9278    0.0000 C   0  0  0  0  0  0  0  0  0  0  0  0
   -1.3919   -3.6778    0.0000 C   0  0  0  0  0  0  0  0  0  0  0  0
   -1.3919   -5.1778    0.0000 N   0  0  0  0  0  0  0  0  0  0  0  0
   -0.0930   -5.9278    0.0000 C   0  0  0  0  0  0  0  0  0  0  0  0
    1.2062   -5.1778    0.0000 C   0  0  0  0  0  0  0  0  0  0  0  0
    2.5053   -5.9278    0.0000 C   0  0  0  0  0  0  0  0  0  0  0  0
    3.8042   -5.1778    0.0000 O   0  0  0  0  0  0  0  0  0  0  0  0
    5.1032   -5.9278    0.0000 C   0  0  0  0  0  0  0  0  0  0  0  0
    5.1032   -7.4278    0.0000 O   0  0  0  0  0  0  0  0  0  0  0  0
    6.4023   -5.1778    0.0000 C   0  0  0  0  0  0  0  0  0  0  0  0
    6.4023   -3.6778    0.0000 C   0  0  0  0  0  0  0  0  0  0  0  0
    7.7013   -2.9278    0.0000 C   0  0  0  0  0  0  0  0  0  0  0  0
    9.0004   -3.6778    0.0000 C   0  0  0  0  0  0  0  0  0  0  0  0
    9.0004   -5.1778    0.0000 C   0  0  0  0  0  0  0  0  0  0  0  0
    7.7013   -5.9278    0.0000 C   0  0  0  0  0  0  0  0  0  0  0  0
  1  2  1  0  0  0  0
  3  2  1  0  0  0  0
  2  7  1  0  0  0  0
  4  3  1  0  0  0  0
  5  4  1  0  0  0  0
  6  5  1  0  0  0  0
  7  6  1  0  0  0  0
  7  8  1  0  0  0  0
  8  9  1  0  0  0  0
  9 10  1  0  0  0  0
 10 11  1  0  0  0  0
 11 12  1  0  0  0  0
 12 13  2  0  0  0  0
 12 14  1  0  0  0  0
 15 14  2  0  0  0  0
 14 19  1  0  0  0  0
 16 15  1  0  0  0  0
 17 16  2  0  0  0  0
 18 17  1  0  0  0  0
 19 18  2  0  0  0  0
M  END
> <Inchi_key>
YQKAVWCGQQXBGW-UHFFFAOYSA-N

> <Source>
Mulliner

> <ID>
HT3152

> <H_MFHB>
0

> <CAS>


> <Cholestasis>


> <Name>


> <Class>
0

$$$$