

  -INDIGO-08031710012D

 22 24  0  0  0  0  0  0  0  0999 V2000
   11.0829   -2.0323    0.0000 C   0  0  0  0  0  0  0  0  0  0  0  0
    9.5977   -2.2426    0.0000 C   0  0  0  0  0  0  0  0  0  0  0  0
    9.0373   -3.6339    0.0000 O   0  0  0  0  0  0  0  0  0  0  0  0
    8.6730   -1.0616    0.0000 O   0  0  0  0  0  0  0  0  0  0  0  0
    7.1878   -1.2717    0.0000 C   0  0  0  0  0  0  0  0  0  0  0  0
    6.7319   -2.7006    0.0000 C   0  0  0  0  0  0  0  0  0  0  0  0
    5.3306   -3.2361    0.0000 C   0  0  0  0  0  0  0  0  0  0  0  0
    5.3178   -4.7360    0.0000 C   0  0  0  0  0  0  0  0  0  0  0  0
    4.0123   -5.4747    0.0000 C   0  0  0  0  0  0  0  0  0  0  0  0
    2.7198   -4.7136    0.0000 C   0  0  0  0  0  0  0  0  0  0  0  0
    2.7328   -3.2136    0.0000 C   0  0  0  0  0  0  0  0  0  0  0  0
    4.0382   -2.4749    0.0000 C   0  0  0  0  0  0  0  0  0  0  0  0
    3.8266   -0.9898    0.0000 N   0  0  0  0  0  0  0  0  0  0  0  0
    2.3973   -0.5352    0.0000 C   0  0  0  0  0  0  0  0  0  0  0  0
    1.2888   -1.5458    0.0000 O   0  0  0  0  0  0  0  0  0  0  0  0
    2.0762    0.9299    0.0000 N   0  0  0  0  0  0  0  0  0  0  0  0
    4.8585    0.1001    0.0000 C   0  0  0  0  0  0  0  0  0  0  0  0
    4.2196    1.4573    0.0000 C   0  0  0  0  0  0  0  0  0  0  0  0
    5.0757    2.6890    0.0000 C   0  0  0  0  0  0  0  0  0  0  0  0
    6.5703    2.5637    0.0000 C   0  0  0  0  0  0  0  0  0  0  0  0
    7.2092    1.2065    0.0000 C   0  0  0  0  0  0  0  0  0  0  0  0
    6.3532   -0.0253    0.0000 C   0  0  0  0  0  0  0  0  0  0  0  0
  1  2  1  0  0  0  0
  2  3  2  0  0  0  0
  2  4  1  0  0  0  0
  4  5  1  0  0  0  0
  6  5  1  0  0  0  0
  5 22  1  0  0  0  0
  7  6  1  0  0  0  0
  8  7  2  0  0  0  0
  7 12  1  0  0  0  0
  9  8  1  0  0  0  0
 10  9  2  0  0  0  0
 11 10  1  0  0  0  0
 12 11  2  0  0  0  0
 13 12  1  0  0  0  0
 13 14  1  0  0  0  0
 17 13  1  0  0  0  0
 14 15  2  0  0  0  0
 14 16  1  0  0  0  0
 18 17  2  0  0  0  0
 17 22  1  0  0  0  0
 19 18  1  0  0  0  0
 20 19  2  0  0  0  0
 21 20  1  0  0  0  0
 22 21  2  0  0  0  0
M  END
> <Inchi_key>
QIALRBLEEWJACW-UHFFFAOYSA-N

> <Source>
Mulliner

> <ID>
HT0786

> <H_MFHB>
0

> <CAS>


> <Cholestasis>


> <Name>
eslicarbazepine acetate

> <Class>
0


$$$$