
  -INDIGO-08031710012D

 15 14  0  0  0  0  0  0  0  0999 V2000
   15.5272    3.4605    0.0000 C   0  0  0  0  0  0  0  0  0  0  0  0
   14.2282    4.2105    0.0000 C   0  0  0  0  0  0  0  0  0  0  0  0
   12.9293    3.4605    0.0000 C   0  0  0  0  0  0  0  0  0  0  0  0
   11.6300    4.2105    0.0000 C   0  0  0  0  0  0  0  0  0  0  0  0
   10.3311    3.4605    0.0000 C   0  0  0  0  0  0  0  0  0  0  0  0
    9.0321    4.2105    0.0000 C   0  0  0  0  0  0  0  0  0  0  0  0
    7.7331    3.4605    0.0000 O   0  0  0  0  0  0  0  0  0  0  0  0
    6.4339    4.2105    0.0000 C   0  0  0  0  0  0  0  0  0  0  0  0
    6.4339    5.7105    0.0000 O   0  0  0  0  0  0  0  0  0  0  0  0
    5.1349    3.4605    0.0000 C   0  0  0  0  0  0  0  0  0  0  0  0
    3.8360    4.2105    0.0000 C   0  0  0  0  0  0  0  0  0  0  0  0
    2.5370    3.4605    0.0000 C   0  0  0  0  0  0  0  0  0  0  0  0
    2.5370    1.9605    0.0000 O   0  0  0  0  0  0  0  0  0  0  0  0
    1.2378    4.2105    0.0000 C   0  0  0  0  0  0  0  0  0  0  0  0
   -0.0612    3.4605    0.0000 N   0  0  0  0  0  0  0  0  0  0  0  0
  1  2  1  0  0  0  0
  2  3  1  0  0  0  0
  3  4  1  0  0  0  0
  4  5  1  0  0  0  0
  5  6  1  0  0  0  0
  6  7  1  0  0  0  0
  7  8  1  0  0  0  0
  8  9  2  0  0  0  0
  8 10  1  0  0  0  0
 10 11  1  0  0  0  0
 11 12  1  0  0  0  0
 12 13  2  0  0  0  0
 12 14  1  0  0  0  0
 14 15  1  0  0  0  0
M  END
> <Inchi_key>
RYQOILLJDKPETL-UHFFFAOYSA-N

> <Source>
Mulliner

> <ID>
HT1032

> <H_MFHB>
0

> <CAS>
140898-91-5

> <Cholestasis>


> <Name>
hexaminolevulinate hydrochloride

> <Class>
0

$$$$