
  -INDIGO-08031710012D

 27 26  0  0  0  0  0  0  0  0999 V2000
    2.4444    8.0828    0.0000 O   0  0  0  0  0  0  0  0  0  0  0  0
    0.9445    8.0828    0.0000 C   0  0  0  0  0  0  0  0  0  0  0  0
    0.1945    9.3819    0.0000 O   0  0  0  0  0  0  0  0  0  0  0  0
    0.1945    6.7839    0.0000 C   0  0  0  0  0  0  0  0  0  0  0  0
    0.9445    5.4847    0.0000 N   0  0  0  0  0  0  0  0  0  0  0  0
    0.1945    4.1858    0.0000 C   0  0  0  0  0  0  0  0  0  0  0  0
   -1.3056    4.1858    0.0000 C   0  0  0  0  0  0  0  0  0  0  0  0
   -2.0556    2.8868    0.0000 N   0  0  0  0  0  0  0  0  0  0  0  0
   -3.5555    2.8868    0.0000 C   0  0  0  0  0  0  0  0  0  0  0  0
   -4.3055    4.1858    0.0000 C   0  0  0  0  0  0  0  0  0  0  0  0
   -3.5555    5.4847    0.0000 O   0  0  0  0  0  0  0  0  0  0  0  0
   -5.8056    4.1858    0.0000 O   0  0  0  0  0  0  0  0  0  0  0  0
   -1.3056    1.5877    0.0000 C   0  0  0  0  0  0  0  0  0  0  0  0
   -2.0556    0.2887    0.0000 C   0  0  0  0  0  0  0  0  0  0  0  0
   -1.3056   -1.0104    0.0000 O   0  0  0  0  0  0  0  0  0  0  0  0
   -3.5555    0.2887    0.0000 O   0  0  0  0  0  0  0  0  0  0  0  0
    2.4444    5.4847    0.0000 C   0  0  0  0  0  0  0  0  0  0  0  0
    3.1944    4.1858    0.0000 C   0  0  0  0  0  0  0  0  0  0  0  0
    4.6945    4.1858    0.0000 N   0  0  0  0  0  0  0  0  0  0  0  0
    5.4445    2.8868    0.0000 C   0  0  0  0  0  0  0  0  0  0  0  0
    4.6945    1.5877    0.0000 C   0  0  0  0  0  0  0  0  0  0  0  0
    3.1944    1.5877    0.0000 O   0  0  0  0  0  0  0  0  0  0  0  0
    5.4445    0.2887    0.0000 O   0  0  0  0  0  0  0  0  0  0  0  0
    5.4445    5.4847    0.0000 C   0  0  0  0  0  0  0  0  0  0  0  0
    6.9444    5.4847    0.0000 C   0  0  0  0  0  0  0  0  0  0  0  0
    7.6944    4.1858    0.0000 O   0  0  0  0  0  0  0  0  0  0  0  0
    7.6944    6.7839    0.0000 O   0  0  0  0  0  0  0  0  0  0  0  0
  1  2  1  0  0  0  0
  2  3  2  0  0  0  0
  2  4  1  0  0  0  0
  4  5  1  0  0  0  0
  5  6  1  0  0  0  0
  5 17  1  0  0  0  0
  6  7  1  0  0  0  0
  7  8  1  0  0  0  0
  8  9  1  0  0  0  0
  8 13  1  0  0  0  0
  9 10  1  0  0  0  0
 10 11  2  0  0  0  0
 10 12  1  0  0  0  0
 13 14  1  0  0  0  0
 14 15  2  0  0  0  0
 14 16  1  0  0  0  0
 17 18  1  0  0  0  0
 18 19  1  0  0  0  0
 19 20  1  0  0  0  0
 19 24  1  0  0  0  0
 20 21  1  0  0  0  0
 21 22  2  0  0  0  0
 21 23  1  0  0  0  0
 24 25  1  0  0  0  0
 25 26  2  0  0  0  0
 25 27  1  0  0  0  0
M  END
> <Inchi_key>
QPCDCPDFJACHGM-UHFFFAOYSA-N

> <Source>
Mulliner

> <ID>
HT0955

> <H_MFHB>
0

> <CAS>


> <Cholestasis>


> <Name>
gadopentetate dimeglumine;gadopentetic acid;diethylenetriaminepentaacetic acid;pentetate calcium trisodium

> <Class>
0

$$$$