

  -INDIGO-08031710012D

 13 14  0  0  0  0  0  0  0  0999 V2000
   10.7557   -0.3089    0.0000 C   0  0  0  0  0  0  0  0  0  0  0  0
    9.6285    0.6809    0.0000 C   0  0  0  0  0  0  0  0  0  0  0  0
    8.5015    1.6706    0.0000 C   0  0  0  0  0  0  0  0  0  0  0  0
    7.0808    1.1893    0.0000 N   0  0  0  0  0  0  0  0  0  0  0  0
    5.9536    2.1790    0.0000 C   0  0  0  0  0  0  0  0  0  0  0  0
    6.0917    3.6726    0.0000 C   0  0  0  0  0  0  0  0  0  0  0  0
    4.7138    4.2656    0.0000 C   0  0  0  0  0  0  0  0  0  0  0  0
    3.7242    3.1385    0.0000 C   0  0  0  0  0  0  0  0  0  0  0  0
    2.2243    3.1198    0.0000 C   0  0  0  0  0  0  0  0  0  0  0  0
    1.4906    1.8115    0.0000 C   0  0  0  0  0  0  0  0  0  0  0  0
    2.2567    0.5219    0.0000 C   0  0  0  0  0  0  0  0  0  0  0  0
    3.7566    0.5406    0.0000 C   0  0  0  0  0  0  0  0  0  0  0  0
    4.4903    1.8489    0.0000 C   0  0  0  0  0  0  0  0  0  0  0  0
  1  2  3  0  0  0  0
  2  3  1  0  0  0  0
  3  4  1  0  0  0  0
  4  5  1  0  0  0  0
  6  5  1  0  0  0  0
  5 13  1  0  0  0  0
  7  6  1  0  0  0  0
  8  7  1  0  0  0  0
  9  8  2  0  0  0  0
  8 13  1  0  0  0  0
 10  9  1  0  0  0  0
 11 10  2  0  0  0  0
 12 11  1  0  0  0  0
 13 12  2  0  0  0  0
M  END
> <Inchi_key>
RUOKEQAAGRXIBM-UHFFFAOYSA-N

> <Source>
Mulliner , Kotsampasakou

> <ID>
EK0464;HT1803

> <H_MFHB>
0

> <CAS>


> <Cholestasis>
0

> <Name>
rasagiline mesylate;rasagiline

> <Class>
0


$$$$