

  -INDIGO-08031710012D

 25 27  0  0  0  0  0  0  0  0999 V2000
    5.3482   -3.3755    0.0000 O   0  0  0  0  0  0  0  0  0  0  0  0
    4.9934   -1.9181    0.0000 C   0  0  0  0  0  0  0  0  0  0  0  0
    3.5262   -1.6059    0.0000 N   0  0  0  0  0  0  0  0  0  0  0  0
    2.8549   -0.2645    0.0000 C   0  0  0  0  0  0  0  0  0  0  0  0
    1.3550   -0.2865    0.0000 C   0  0  0  0  0  0  0  0  0  0  0  0
    0.5861    1.0015    0.0000 C   0  0  0  0  0  0  0  0  0  0  0  0
   -0.9138    0.9795    0.0000 C   0  0  0  0  0  0  0  0  0  0  0  0
   -1.6446   -0.3303    0.0000 C   0  0  0  0  0  0  0  0  0  0  0  0
   -0.8757   -1.6182    0.0000 C   0  0  0  0  0  0  0  0  0  0  0  0
    0.6242   -1.5963    0.0000 C   0  0  0  0  0  0  0  0  0  0  0  0
    1.3931   -2.8843    0.0000 F   0  0  0  0  0  0  0  0  0  0  0  0
    3.4868    1.0959    0.0000 C   0  0  0  0  0  0  0  0  0  0  0  0
    2.4508    2.1806    0.0000 C   0  0  0  0  0  0  0  0  0  0  0  0
    2.8721    3.6202    0.0000 C   0  0  0  0  0  0  0  0  0  0  0  0
    1.8359    4.7049    0.0000 Cl  0  0  0  0  0  0  0  0  0  0  0  0
    4.3293    3.9751    0.0000 C   0  0  0  0  0  0  0  0  0  0  0  0
    5.3655    2.8904    0.0000 C   0  0  0  0  0  0  0  0  0  0  0  0
    4.9442    1.4508    0.0000 C   0  0  0  0  0  0  0  0  0  0  0  0
    6.1320    0.5336    0.0000 N   0  0  0  0  0  0  0  0  0  0  0  0
    7.4742    1.2037    0.0000 C   0  0  0  0  0  0  0  0  0  0  0  0
    8.7255    0.3766    0.0000 C   0  0  0  0  0  0  0  0  0  0  0  0
   10.0674    1.0467    0.0000 C   0  0  0  0  0  0  0  0  0  0  0  0
   11.4094    1.7169    0.0000 N   0  0  0  0  0  0  0  0  0  0  0  0
    6.1527   -0.9664    0.0000 C   0  0  0  0  0  0  0  0  0  0  0  0
    7.5130   -1.5981    0.0000 O   0  0  0  0  0  0  0  0  0  0  0  0
  1  2  1  0  0  0  0
  3  2  1  0  0  0  0
  2 24  1  0  0  0  0
  4  3  2  0  0  0  0
  4  5  1  0  0  0  0
 12  4  1  0  0  0  0
  6  5  2  0  0  0  0
  5 10  1  0  0  0  0
  7  6  1  0  0  0  0
  8  7  2  0  0  0  0
  9  8  1  0  0  0  0
 10  9  2  0  0  0  0
 10 11  1  0  0  0  0
 13 12  2  0  0  0  0
 12 18  1  0  0  0  0
 14 13  1  0  0  0  0
 14 15  1  0  0  0  0
 16 14  2  0  0  0  0
 17 16  1  0  0  0  0
 18 17  2  0  0  0  0
 19 18  1  0  0  0  0
 19 20  1  0  0  0  0
 24 19  1  0  0  0  0
 20 21  1  0  0  0  0
 21 22  1  0  0  0  0
 22 23  3  0  0  0  0
 24 25  2  0  0  0  0
M  END
> <Inchi_key>
XAXMYHMKTCNRRZ-UHFFFAOYSA-N

> <Source>
Mulliner

> <ID>
HT0494

> <H_MFHB>
0

> <CAS>


> <Cholestasis>


> <Name>
cinolazepam

> <Class>
0


$$$$