

  -INDIGO-08031710012D

  4  3  0  0  0  0  0  0  0  0999 V2000
    3.0000    0.0000    0.0000 I   0  0  0  0  0  0  0  0  0  0  0  0
    1.5000    0.0000    0.0000 C   0  0  0  0  0  0  0  0  0  0  0  0
    0.7500   -1.2990    0.0000 I   0  0  0  0  0  0  0  0  0  0  0  0
    0.7500    1.2990    0.0000 I   0  0  0  0  0  0  0  0  0  0  0  0
  1  2  1  0  0  0  0
  2  3  1  0  0  0  0
  2  4  1  0  0  0  0
M  END
> <Inchi_key>
OKJPEAGHQZHRQV-UHFFFAOYSA-N

> <Source>
Mulliner

> <ID>
HT1105

> <H_MFHB>
0

> <CAS>
75-47-8

> <Cholestasis>


> <Name>
iodoform

> <Class>
0


$$$$