

  -INDIGO-08031710012D

 26 29  0  0  0  0  0  0  0  0999 V2000
   14.6501    0.1294    0.0000 C   0  0  0  0  0  0  0  0  0  0  0  0
   13.1502    0.1030    0.0000 N   0  0  0  0  0  0  0  0  0  0  0  0
   12.3775    1.3885    0.0000 C   0  0  0  0  0  0  0  0  0  0  0  0
   10.8776    1.3620    0.0000 C   0  0  0  0  0  0  0  0  0  0  0  0
   10.1507    0.0499    0.0000 N   0  0  0  0  0  0  0  0  0  0  0  0
    8.6511    0.0234    0.0000 C   0  0  0  0  0  0  0  0  0  0  0  0
    7.9241   -1.2887    0.0000 C   0  0  0  0  0  0  0  0  0  0  0  0
    8.6969   -2.5743    0.0000 O   0  0  0  0  0  0  0  0  0  0  0  0
    6.4243   -1.3152    0.0000 N   0  0  0  0  0  0  0  0  0  0  0  0
    5.7489    0.0242    0.0000 C   0  0  0  0  0  0  0  0  0  0  0  0
    6.7493    1.1417    0.0000 C   0  0  0  0  0  0  0  0  0  0  0  0
    6.2818    2.5670    0.0000 C   0  0  0  0  0  0  0  0  0  0  0  0
    4.8137    2.8747    0.0000 C   0  0  0  0  0  0  0  0  0  0  0  0
    3.8131    1.7571    0.0000 C   0  0  0  0  0  0  0  0  0  0  0  0
    4.2808    0.3319    0.0000 C   0  0  0  0  0  0  0  0  0  0  0  0
    3.1244   -0.6235    0.0000 N   0  0  0  0  0  0  0  0  0  0  0  0
    3.1497   -2.1233    0.0000 C   0  0  0  0  0  0  0  0  0  0  0  0
    1.8097   -2.7976    0.0000 O   0  0  0  0  0  0  0  0  0  0  0  0
    4.3404   -3.0369    0.0000 C   0  0  0  0  0  0  0  0  0  0  0  0
    4.2320   -4.5330    0.0000 C   0  0  0  0  0  0  0  0  0  0  0  0
    5.6216   -5.0982    0.0000 S   0  0  0  0  0  0  0  0  0  0  0  0
    6.5885   -3.9514    0.0000 C   0  0  0  0  0  0  0  0  0  0  0  0
    8.0844   -4.0597    0.0000 C   0  0  0  0  0  0  0  0  0  0  0  0
    5.7965   -2.6776    0.0000 C   0  0  0  0  0  0  0  0  0  0  0  0
   10.9237   -1.2357    0.0000 C   0  0  0  0  0  0  0  0  0  0  0  0
   12.4233   -1.2093    0.0000 C   0  0  0  0  0  0  0  0  0  0  0  0
  1  2  1  0  0  0  0
  3  2  1  0  0  0  0
  2 26  1  0  0  0  0
  4  3  1  0  0  0  0
  5  4  1  0  0  0  0
  5  6  1  0  0  0  0
 25  5  1  0  0  0  0
  6  7  1  0  0  0  0
  7  8  2  0  0  0  0
  7  9  1  0  0  0  0
 10  9  1  0  0  0  0
  9 24  1  0  0  0  0
 11 10  2  0  0  0  0
 10 15  1  0  0  0  0
 12 11  1  0  0  0  0
 13 12  2  0  0  0  0
 14 13  1  0  0  0  0
 15 14  2  0  0  0  0
 16 15  1  0  0  0  0
 17 16  1  0  0  0  0
 17 18  2  0  0  0  0
 19 17  1  0  0  0  0
 20 19  2  0  0  0  0
 19 24  1  0  0  0  0
 21 20  1  0  0  0  0
 22 21  1  0  0  0  0
 22 23  1  0  0  0  0
 24 22  2  0  0  0  0
 26 25  1  0  0  0  0
M  END
> <Inchi_key>
VSWPGAIWKHPTKX-UHFFFAOYSA-N

> <Source>
Mulliner

> <ID>
HT1993

> <H_MFHB>
0

> <CAS>


> <Cholestasis>


> <Name>
telenzepine

> <Class>
0


$$$$