

  -INDIGO-08031710012D

 26 28  0  0  0  0  0  0  0  0999 V2000
   14.1694   -0.0751    0.0000 Cl  0  0  0  0  0  0  0  0  0  0  0  0
   12.8703   -0.8250    0.0000 C   0  0  0  0  0  0  0  0  0  0  0  0
   11.5714   -0.0751    0.0000 C   0  0  0  0  0  0  0  0  0  0  0  0
   10.2723   -0.8250    0.0000 C   0  0  0  0  0  0  0  0  0  0  0  0
   10.2723   -2.3251    0.0000 C   0  0  0  0  0  0  0  0  0  0  0  0
    8.9732   -3.0751    0.0000 C   0  0  0  0  0  0  0  0  0  0  0  0
    7.6742   -2.3251    0.0000 O   0  0  0  0  0  0  0  0  0  0  0  0
    6.3751   -3.0751    0.0000 N   0  0  0  0  0  0  0  0  0  0  0  0
    5.0760   -2.3251    0.0000 C   0  0  0  0  0  0  0  0  0  0  0  0
    3.7771   -3.0751    0.0000 C   0  0  0  0  0  0  0  0  0  0  0  0
    3.7771   -4.5750    0.0000 N   0  0  0  0  0  0  0  0  0  0  0  0
    4.9906   -5.4568    0.0000 C   0  0  0  0  0  0  0  0  0  0  0  0
    4.5271   -6.8834    0.0000 C   0  0  0  0  0  0  0  0  0  0  0  0
    3.0271   -6.8834    0.0000 N   0  0  0  0  0  0  0  0  0  0  0  0
    2.5635   -5.4568    0.0000 C   0  0  0  0  0  0  0  0  0  0  0  0
    5.0760   -0.8250    0.0000 C   0  0  0  0  0  0  0  0  0  0  0  0
    6.3751   -0.0751    0.0000 C   0  0  0  0  0  0  0  0  0  0  0  0
    6.3751    1.4248    0.0000 C   0  0  0  0  0  0  0  0  0  0  0  0
    5.0760    2.1750    0.0000 C   0  0  0  0  0  0  0  0  0  0  0  0
    5.0760    3.6749    0.0000 Cl  0  0  0  0  0  0  0  0  0  0  0  0
    3.7771    1.4248    0.0000 C   0  0  0  0  0  0  0  0  0  0  0  0
    3.7771   -0.0751    0.0000 C   0  0  0  0  0  0  0  0  0  0  0  0
    2.4780   -0.8250    0.0000 Cl  0  0  0  0  0  0  0  0  0  0  0  0
   11.5714   -3.0751    0.0000 C   0  0  0  0  0  0  0  0  0  0  0  0
   11.5714   -4.5750    0.0000 Cl  0  0  0  0  0  0  0  0  0  0  0  0
   12.8703   -2.3251    0.0000 C   0  0  0  0  0  0  0  0  0  0  0  0
  1  2  1  0  0  0  0
  3  2  2  0  0  0  0
  2 26  1  0  0  0  0
  4  3  1  0  0  0  0
  5  4  2  0  0  0  0
  5  6  1  0  0  0  0
 24  5  1  0  0  0  0
  6  7  1  0  0  0  0
  7  8  1  0  0  0  0
  8  9  2  0  0  0  0
  9 10  1  0  0  0  0
  9 16  1  0  0  0  0
 10 11  1  0  0  0  0
 12 11  1  0  0  0  0
 11 15  1  0  0  0  0
 13 12  2  0  0  0  0
 14 13  1  0  0  0  0
 15 14  2  0  0  0  0
 17 16  2  0  0  0  0
 16 22  1  0  0  0  0
 18 17  1  0  0  0  0
 19 18  2  0  0  0  0
 19 20  1  0  0  0  0
 21 19  1  0  0  0  0
 22 21  2  0  0  0  0
 22 23  1  0  0  0  0
 24 25  1  0  0  0  0
 26 24  2  0  0  0  0
M  END
> <Inchi_key>
QRJJEGAJXVEBNE-MOHJPFBDSA-N

> <Source>
Mulliner , Kotsampasakou

> <ID>
EK0395;HT1559

> <H_MFHB>
0

> <CAS>


> <Cholestasis>
0

> <Name>
oxiconazole;oxiconazole nitrate

> <Class>
0


$$$$