

  -INDIGO-08031710012D

 35 38  0  0  0  0  0  0  0  0999 V2000
   19.6810    1.0643    0.0000 N   0  0  0  0  0  0  0  0  0  0  0  0
   18.3930    0.2953    0.0000 C   0  0  0  0  0  0  0  0  0  0  0  0
   18.4151   -1.2045    0.0000 C   0  0  0  0  0  0  0  0  0  0  0  0
   19.7249   -1.9353    0.0000 C   0  0  0  0  0  0  0  0  0  0  0  0
   19.7470   -3.4352    0.0000 C   0  0  0  0  0  0  0  0  0  0  0  0
   18.4590   -4.2042    0.0000 C   0  0  0  0  0  0  0  0  0  0  0  0
   17.1492   -3.4733    0.0000 C   0  0  0  0  0  0  0  0  0  0  0  0
   17.1271   -1.9734    0.0000 C   0  0  0  0  0  0  0  0  0  0  0  0
   15.8174   -1.2427    0.0000 C   0  0  0  0  0  0  0  0  0  0  0  0
   14.5294   -2.0115    0.0000 C   0  0  0  0  0  0  0  0  0  0  0  0
   14.5515   -3.5116    0.0000 O   0  0  0  0  0  0  0  0  0  0  0  0
   13.2196   -1.2808    0.0000 N   0  0  0  0  0  0  0  0  0  0  0  0
   11.9316   -2.0498    0.0000 C   0  0  0  0  0  0  0  0  0  0  0  0
   10.4772   -1.6829    0.0000 C   0  0  0  0  0  0  0  0  0  0  0  0
    9.4011   -0.6379    0.0000 S   0  0  0  0  0  0  0  0  0  0  0  0
    7.9581   -1.0474    0.0000 C   0  0  0  0  0  0  0  0  0  0  0  0
    7.5910   -2.5018    0.0000 C   0  0  0  0  0  0  0  0  0  0  0  0
    8.6671   -3.5468    0.0000 C   0  0  0  0  0  0  0  0  0  0  0  0
   10.1103   -3.1373    0.0000 N   0  0  0  0  0  0  0  0  0  0  0  0
   11.5648   -3.5042    0.0000 C   0  0  0  0  0  0  0  0  0  0  0  0
   12.3336   -4.7920    0.0000 O   0  0  0  0  0  0  0  0  0  0  0  0
    8.3002   -5.0012    0.0000 C   0  0  0  0  0  0  0  0  0  0  0  0
    9.3763   -6.0462    0.0000 O   0  0  0  0  0  0  0  0  0  0  0  0
    6.8572   -5.4108    0.0000 O   0  0  0  0  0  0  0  0  0  0  0  0
    6.1480   -2.9112    0.0000 C   0  0  0  0  0  0  0  0  0  0  0  0
    5.0719   -1.8663    0.0000 S   0  0  0  0  0  0  0  0  0  0  0  0
    3.6289   -2.2758    0.0000 C   0  0  0  0  0  0  0  0  0  0  0  0
    3.1119   -3.6839    0.0000 N   0  0  0  0  0  0  0  0  0  0  0  0
    1.6130   -3.6274    0.0000 N   0  0  0  0  0  0  0  0  0  0  0  0
    1.2037   -2.1843    0.0000 N   0  0  0  0  0  0  0  0  0  0  0  0
    2.4493   -1.3490    0.0000 N   0  0  0  0  0  0  0  0  0  0  0  0
    2.5059    0.1498    0.0000 C   0  0  0  0  0  0  0  0  0  0  0  0
    1.2361    0.9483    0.0000 C   0  0  0  0  0  0  0  0  0  0  0  0
    1.2927    2.4473    0.0000 O   0  0  0  0  0  0  0  0  0  0  0  0
   -0.0903    0.2478    0.0000 O   0  0  0  0  0  0  0  0  0  0  0  0
  1  2  1  0  0  0  0
  2  3  1  0  0  0  0
  4  3  2  0  0  0  0
  3  8  1  0  0  0  0
  5  4  1  0  0  0  0
  6  5  2  0  0  0  0
  7  6  1  0  0  0  0
  8  7  2  0  0  0  0
  8  9  1  0  0  0  0
  9 10  1  0  0  0  0
 10 11  2  0  0  0  0
 10 12  1  0  0  0  0
 12 13  1  0  0  0  0
 14 13  1  0  0  0  0
 13 20  1  0  0  0  0
 15 14  1  0  0  0  0
 14 19  1  0  0  0  0
 16 15  1  0  0  0  0
 17 16  1  0  0  0  0
 18 17  2  0  0  0  0
 17 25  1  0  0  0  0
 19 18  1  0  0  0  0
 18 22  1  0  0  0  0
 20 19  1  0  0  0  0
 20 21  2  0  0  0  0
 22 23  2  0  0  0  0
 22 24  1  0  0  0  0
 25 26  1  0  0  0  0
 26 27  1  0  0  0  0
 28 27  2  0  0  0  0
 27 31  1  0  0  0  0
 29 28  1  0  0  0  0
 30 29  2  0  0  0  0
 31 30  1  0  0  0  0
 31 32  1  0  0  0  0
 32 33  1  0  0  0  0
 33 34  2  0  0  0  0
 33 35  1  0  0  0  0
M  END
> <Inchi_key>
SLAYUXIURFNXPG-UHFFFAOYSA-N

> <Source>
Mulliner

> <ID>
HT0411

> <H_MFHB>
0

> <CAS>


> <Cholestasis>


> <Name>
ceforanide

> <Class>
0


$$$$