

  -INDIGO-08031710012D

 14 14  0  0  0  0  0  0  0  0999 V2000
    3.5519    1.0876    0.0000 N   0  0  0  0  0  0  0  0  0  0  0  0
    3.5519    2.5876    0.0000 C   0  0  0  0  0  0  0  0  0  0  0  0
    2.2527    3.3376    0.0000 C   0  0  0  0  0  0  0  0  0  0  0  0
    0.9539    2.5876    0.0000 C   0  0  0  0  0  0  0  0  0  0  0  0
    0.9539    1.0876    0.0000 C   0  0  0  0  0  0  0  0  0  0  0  0
   -0.3453    0.3376    0.0000 C   0  0  0  0  0  0  0  0  0  0  0  0
   -1.6443    1.0876    0.0000 C   0  0  0  0  0  0  0  0  0  0  0  0
   -2.9433    0.3376    0.0000 O   0  0  0  0  0  0  0  0  0  0  0  0
   -1.6443    2.5876    0.0000 C   0  0  0  0  0  0  0  0  0  0  0  0
   -2.9433    3.3376    0.0000 O   0  0  0  0  0  0  0  0  0  0  0  0
   -0.3453    3.3376    0.0000 C   0  0  0  0  0  0  0  0  0  0  0  0
    4.8509    3.3376    0.0000 C   0  0  0  0  0  0  0  0  0  0  0  0
    6.1499    2.5876    0.0000 O   0  0  0  0  0  0  0  0  0  0  0  0
    4.8509    4.8376    0.0000 O   0  0  0  0  0  0  0  0  0  0  0  0
  1  2  1  0  0  0  0
  2  3  1  0  0  0  0
  2 12  1  0  0  0  0
  3  4  1  0  0  0  0
  5  4  2  0  0  0  0
  4 11  1  0  0  0  0
  6  5  1  0  0  0  0
  7  6  2  0  0  0  0
  7  8  1  0  0  0  0
  9  7  1  0  0  0  0
  9 10  1  0  0  0  0
 11  9  2  0  0  0  0
 12 13  2  0  0  0  0
 12 14  1  0  0  0  0
M  END
> <Inchi_key>
WTDRDQBEARUVNC-UHFFFAOYSA-N

> <Source>
Mulliner , Kotsampasakou

> <ID>
EK0300;HT1196

> <H_MFHB>
0

> <CAS>
59-92-7

> <Cholestasis>
0

> <Name>
levodopa

> <Class>
0


$$$$