

  -INDIGO-08031710012D

 23 26  0  0  0  0  0  0  0  0999 V2000
    0.6540   -3.1465    0.0000 C   0  0  0  0  0  0  0  0  0  0  0  0
    2.0297   -2.5488    0.0000 N   0  0  0  0  0  0  0  0  0  0  0  0
    3.2352   -3.4414    0.0000 C   0  0  0  0  0  0  0  0  0  0  0  0
    4.6110   -2.8437    0.0000 C   0  0  0  0  0  0  0  0  0  0  0  0
    4.7814   -1.3533    0.0000 N   0  0  0  0  0  0  0  0  0  0  0  0
    3.5759   -0.4608    0.0000 C   0  0  0  0  0  0  0  0  0  0  0  0
    2.2000   -1.0585    0.0000 C   0  0  0  0  0  0  0  0  0  0  0  0
    6.1571   -0.7557    0.0000 C   0  0  0  0  0  0  0  0  0  0  0  0
    7.2931   -1.7352    0.0000 N   0  0  0  0  0  0  0  0  0  0  0  0
    8.7673   -1.4584    0.0000 C   0  0  0  0  0  0  0  0  0  0  0  0
    9.5630   -2.7300    0.0000 C   0  0  0  0  0  0  0  0  0  0  0  0
   11.0620   -2.6768    0.0000 C   0  0  0  0  0  0  0  0  0  0  0  0
   11.7655   -1.3520    0.0000 C   0  0  0  0  0  0  0  0  0  0  0  0
   10.9700   -0.0804    0.0000 C   0  0  0  0  0  0  0  0  0  0  0  0
    9.4708   -0.1337    0.0000 C   0  0  0  0  0  0  0  0  0  0  0  0
    8.8743    1.2427    0.0000 O   0  0  0  0  0  0  0  0  0  0  0  0
    7.4248    1.6319    0.0000 C   0  0  0  0  0  0  0  0  0  0  0  0
    7.2594    3.1227    0.0000 C   0  0  0  0  0  0  0  0  0  0  0  0
    5.8855    3.7249    0.0000 C   0  0  0  0  0  0  0  0  0  0  0  0
    4.6771    2.8361    0.0000 C   0  0  0  0  0  0  0  0  0  0  0  0
    3.3032    3.4383    0.0000 Cl  0  0  0  0  0  0  0  0  0  0  0  0
    4.8426    1.3453    0.0000 C   0  0  0  0  0  0  0  0  0  0  0  0
    6.2164    0.7432    0.0000 C   0  0  0  0  0  0  0  0  0  0  0  0
  1  2  1  0  0  0  0
  3  2  1  0  0  0  0
  2  7  1  0  0  0  0
  4  3  1  0  0  0  0
  5  4  1  0  0  0  0
  6  5  1  0  0  0  0
  5  8  1  0  0  0  0
  7  6  1  0  0  0  0
  9  8  2  0  0  0  0
  8 23  1  0  0  0  0
 10  9  1  0  0  0  0
 11 10  1  0  0  0  0
 10 15  2  0  0  0  0
 12 11  2  0  0  0  0
 13 12  1  0  0  0  0
 14 13  2  0  0  0  0
 15 14  1  0  0  0  0
 16 15  1  0  0  0  0
 17 16  1  0  0  0  0
 18 17  1  0  0  0  0
 17 23  2  0  0  0  0
 19 18  2  0  0  0  0
 20 19  1  0  0  0  0
 20 21  1  0  0  0  0
 22 20  2  0  0  0  0
 23 22  1  0  0  0  0
M  END
> <Inchi_key>
XJGVXQDUIWGIRW-UHFFFAOYSA-N

> <Source>
Mulliner

> <ID>
HT1246

> <H_MFHB>
0

> <CAS>
28400

> <Cholestasis>


> <Name>
loxapine hydrochloride;loxapine succinate;loxapine

> <Class>
0


$$$$