

  -INDIGO-08031710012D

 33 36  0  0  0  0  0  0  0  0999 V2000
    1.3091    2.5236    0.0000 C   0  0  0  0  0  0  0  0  0  0  0  0
    2.6080    1.7736    0.0000 N   0  0  0  0  0  0  0  0  0  0  0  0
    3.9072    2.5236    0.0000 C   0  0  0  0  0  0  0  0  0  0  0  0
    2.6080    0.2736    0.0000 C   0  0  0  0  0  0  0  0  0  0  0  0
    3.9072   -0.4764    0.0000 C   0  0  0  0  0  0  0  0  0  0  0  0
    5.2063    0.2736    0.0000 C   0  0  0  0  0  0  0  0  0  0  0  0
    5.2063    1.7736    0.0000 O   0  0  0  0  0  0  0  0  0  0  0  0
    6.5052   -0.4764    0.0000 C   0  0  0  0  0  0  0  0  0  0  0  0
    7.8044    0.2736    0.0000 C   0  0  0  0  0  0  0  0  0  0  0  0
    7.8044    1.7736    0.0000 C   0  0  0  0  0  0  0  0  0  0  0  0
    9.1033   -0.4764    0.0000 C   0  0  0  0  0  0  0  0  0  0  0  0
   10.4023    0.2736    0.0000 C   0  0  0  0  0  0  0  0  0  0  0  0
   10.4023    1.7736    0.0000 Cl  0  0  0  0  0  0  0  0  0  0  0  0
   11.7014   -0.4764    0.0000 C   0  0  0  0  0  0  0  0  0  0  0  0
   11.7014   -1.9764    0.0000 C   0  0  0  0  0  0  0  0  0  0  0  0
   10.4023   -2.7264    0.0000 C   0  0  0  0  0  0  0  0  0  0  0  0
   10.4023   -4.2264    0.0000 O   0  0  0  0  0  0  0  0  0  0  0  0
    9.1033   -1.9764    0.0000 C   0  0  0  0  0  0  0  0  0  0  0  0
    7.8044   -2.7264    0.0000 C   0  0  0  0  0  0  0  0  0  0  0  0
    6.5052   -1.9764    0.0000 C   0  0  0  0  0  0  0  0  0  0  0  0
    5.2063   -2.7264    0.0000 C   0  0  0  0  0  0  0  0  0  0  0  0
    5.2063   -4.2264    0.0000 O   0  0  0  0  0  0  0  0  0  0  0  0
    3.9072   -1.9764    0.0000 C   0  0  0  0  0  0  0  0  0  0  0  0
    3.9072   -3.4764    0.0000 O   0  0  0  0  0  0  0  0  0  0  0  0
    2.6080   -2.7264    0.0000 C   0  0  0  0  0  0  0  0  0  0  0  0
    1.3091   -1.9764    0.0000 C   0  0  0  0  0  0  0  0  0  0  0  0
    0.0099   -2.7264    0.0000 C   0  0  0  0  0  0  0  0  0  0  0  0
   -1.2890   -1.9764    0.0000 O   0  0  0  0  0  0  0  0  0  0  0  0
    0.0099   -4.2264    0.0000 N   0  0  0  0  0  0  0  0  0  0  0  0
    1.3091   -0.4764    0.0000 C   0  0  0  0  0  0  0  0  0  0  0  0
    0.0099    0.2736    0.0000 O   0  0  0  0  0  0  0  0  0  0  0  0
    2.6080   -4.2264    0.0000 O   0  0  0  0  0  0  0  0  0  0  0  0
    7.8044   -4.2264    0.0000 O   0  0  0  0  0  0  0  0  0  0  0  0
  1  2  1  0  0  0  0
  2  3  1  0  0  0  0
  2  4  1  0  0  0  0
  5  4  1  0  0  0  0
  4 30  1  0  0  0  0
  6  5  1  0  0  0  0
  5 23  1  0  0  0  0
  6  7  1  0  0  0  0
  8  6  1  0  0  0  0
  9  8  1  0  0  0  0
  8 20  1  0  0  0  0
  9 10  2  0  0  0  0
 11  9  1  0  0  0  0
 12 11  2  0  0  0  0
 11 18  1  0  0  0  0
 12 13  1  0  0  0  0
 14 12  1  0  0  0  0
 15 14  2  0  0  0  0
 16 15  1  0  0  0  0
 16 17  1  0  0  0  0
 18 16  2  0  0  0  0
 19 18  1  0  0  0  0
 20 19  2  0  0  0  0
 19 33  1  0  0  0  0
 21 20  1  0  0  0  0
 21 22  2  0  0  0  0
 23 21  1  0  0  0  0
 23 24  1  0  0  0  0
 25 23  1  0  0  0  0
 26 25  2  0  0  0  0
 25 32  1  0  0  0  0
 26 27  1  0  0  0  0
 30 26  1  0  0  0  0
 27 28  2  0  0  0  0
 27 29  1  0  0  0  0
 30 31  2  0  0  0  0
M  END
> <Inchi_key>
RNIADBXQDMCFEN-UHFFFAOYSA-N

> <Source>
Mulliner

> <ID>
HT1283

> <H_MFHB>
0

> <CAS>


> <Cholestasis>


> <Name>
meclocycline sulfosalicylate;meclocycline

> <Class>
0


$$$$