
  -INDIGO-08031710012D

 34 37  0  0  0  0  0  0  0  0999 V2000
    7.2292    3.2547    0.0000 C   0  0  0  0  0  0  0  0  0  0  0  0
    5.9304    2.5043    0.0000 C   0  0  0  0  0  0  0  0  0  0  0  0
    4.5598    3.1140    0.0000 C   0  0  0  0  0  0  0  0  0  0  0  0
    3.5565    1.9990    0.0000 C   0  0  0  0  0  0  0  0  0  0  0  0
    2.0564    1.9985    0.0000 C   0  0  0  0  0  0  0  0  0  0  0  0
    1.3060    3.2973    0.0000 C   0  0  0  0  0  0  0  0  0  0  0  0
   -0.1941    3.2969    0.0000 C   0  0  0  0  0  0  0  0  0  0  0  0
   -0.9445    4.5957    0.0000 F   0  0  0  0  0  0  0  0  0  0  0  0
   -0.9437    1.9976    0.0000 C   0  0  0  0  0  0  0  0  0  0  0  0
   -2.4435    1.9971    0.0000 C   0  0  0  0  0  0  0  0  0  0  0  0
   -3.1931    0.6979    0.0000 C   0  0  0  0  0  0  0  0  0  0  0  0
   -4.6932    0.6974    0.0000 C   0  0  0  0  0  0  0  0  0  0  0  0
   -2.4427   -0.6010    0.0000 C   0  0  0  0  0  0  0  0  0  0  0  0
   -0.9426   -0.6005    0.0000 C   0  0  0  0  0  0  0  0  0  0  0  0
   -0.1933    0.6989    0.0000 C   0  0  0  0  0  0  0  0  0  0  0  0
    0.5574   -0.6000    0.0000 C   0  0  0  0  0  0  0  0  0  0  0  0
    1.3068    0.6993    0.0000 C   0  0  0  0  0  0  0  0  0  0  0  0
    2.8069    0.6997    0.0000 Cl  0  0  0  0  0  0  0  0  0  0  0  0
    2.0572   -0.5996    0.0000 C   0  0  0  0  0  0  0  0  0  0  0  0
    1.3076   -1.8988    0.0000 O   0  0  0  0  0  0  0  0  0  0  0  0
    3.5573   -0.5991    0.0000 C   0  0  0  0  0  0  0  0  0  0  0  0
    4.3069    0.7002    0.0000 C   0  0  0  0  0  0  0  0  0  0  0  0
    5.1675   -0.5283    0.0000 C   0  0  0  0  0  0  0  0  0  0  0  0
    5.7739    1.0125    0.0000 C   0  0  0  0  0  0  0  0  0  0  0  0
    6.8890    0.0092    0.0000 C   0  0  0  0  0  0  0  0  0  0  0  0
    6.5775   -1.4582    0.0000 O   0  0  0  0  0  0  0  0  0  0  0  0
    8.3155    0.4731    0.0000 C   0  0  0  0  0  0  0  0  0  0  0  0
    9.4306   -0.5302    0.0000 O   0  0  0  0  0  0  0  0  0  0  0  0
   10.8568   -0.0663    0.0000 C   0  0  0  0  0  0  0  0  0  0  0  0
   11.1683    1.4011    0.0000 O   0  0  0  0  0  0  0  0  0  0  0  0
   11.9719   -1.0696    0.0000 C   0  0  0  0  0  0  0  0  0  0  0  0
   12.9752    0.0454    0.0000 C   0  0  0  0  0  0  0  0  0  0  0  0
   10.9686   -2.1846    0.0000 C   0  0  0  0  0  0  0  0  0  0  0  0
   13.0870   -2.0730    0.0000 C   0  0  0  0  0  0  0  0  0  0  0  0
  1  2  1  0  0  0  0
  3  2  1  0  0  0  0
  2 24  1  0  0  0  0
  4  3  1  0  0  0  0
  5  4  1  0  0  0  0
  4 22  1  0  0  0  0
  6  5  1  0  0  0  0
  5 17  1  0  0  0  0
  7  6  1  0  0  0  0
  7  8  1  0  0  0  0
  9  7  1  0  0  0  0
 10  9  2  0  0  0  0
  9 15  1  0  0  0  0
 11 10  1  0  0  0  0
 11 12  2  0  0  0  0
 13 11  1  0  0  0  0
 14 13  2  0  0  0  0
 15 14  1  0  0  0  0
 15 16  1  0  0  0  0
 17 15  1  0  0  0  0
 17 18  1  0  0  0  0
 19 17  1  0  0  0  0
 19 20  1  0  0  0  0
 21 19  1  0  0  0  0
 22 21  1  0  0  0  0
 22 23  1  0  0  0  0
 24 22  1  0  0  0  0
 24 25  1  0  0  0  0
 25 26  2  0  0  0  0
 25 27  1  0  0  0  0
 27 28  1  0  0  0  0
 28 29  1  0  0  0  0
 29 30  2  0  0  0  0
 29 31  1  0  0  0  0
 31 32  1  0  0  0  0
 31 33  1  0  0  0  0
 31 34  1  0  0  0  0
M  END
> <Inchi_key>
ZVIOXYVXVYOXLN-UHFFFAOYSA-N

> <Source>
Mulliner

> <ID>
HT3881

> <H_MFHB>
0

> <CAS>


> <Cholestasis>


> <Name>


> <Class>
0

$$$$