

  -INDIGO-08031710012D

 29 31  0  0  0  0  0  0  0  0999 V2000
    2.2935   10.2085    0.0000 C   0  0  0  0  0  0  0  0  0  0  0  0
    2.4626    8.7181    0.0000 C   0  0  0  0  0  0  0  0  0  0  0  0
    2.6314    7.2274    0.0000 C   0  0  0  0  0  0  0  0  0  0  0  0
    2.8003    5.7372    0.0000 C   0  0  0  0  0  0  0  0  0  0  0  0
    4.1755    5.1381    0.0000 C   0  0  0  0  0  0  0  0  0  0  0  0
    5.3817    6.0296    0.0000 C   0  0  0  0  0  0  0  0  0  0  0  0
    4.3444    3.6476    0.0000 C   0  0  0  0  0  0  0  0  0  0  0  0
    5.7197    3.0487    0.0000 O   0  0  0  0  0  0  0  0  0  0  0  0
    3.1380    2.7563    0.0000 C   0  0  0  0  0  0  0  0  0  0  0  0
    3.3071    1.2656    0.0000 C   0  0  0  0  0  0  0  0  0  0  0  0
    4.6821    0.6667    0.0000 C   0  0  0  0  0  0  0  0  0  0  0  0
    5.0059   -0.7978    0.0000 C   0  0  0  0  0  0  0  0  0  0  0  0
    4.0114   -1.9207    0.0000 O   0  0  0  0  0  0  0  0  0  0  0  0
    6.4990   -0.9426    0.0000 C   0  0  0  0  0  0  0  0  0  0  0  0
    7.0979    0.4328    0.0000 C   0  0  0  0  0  0  0  0  0  0  0  0
    8.3909    1.1933    0.0000 O   0  0  0  0  0  0  0  0  0  0  0  0
    8.0671    2.6578    0.0000 C   0  0  0  0  0  0  0  0  0  0  0  0
    8.9389    3.8786    0.0000 C   0  0  0  0  0  0  0  0  0  0  0  0
   10.4319    3.7339    0.0000 C   0  0  0  0  0  0  0  0  0  0  0  0
   11.3038    4.9545    0.0000 C   0  0  0  0  0  0  0  0  0  0  0  0
   12.7966    4.8097    0.0000 C   0  0  0  0  0  0  0  0  0  0  0  0
   13.6684    6.0303    0.0000 C   0  0  0  0  0  0  0  0  0  0  0  0
   13.0472    7.3957    0.0000 O   0  0  0  0  0  0  0  0  0  0  0  0
   15.1615    5.8858    0.0000 O   0  0  0  0  0  0  0  0  0  0  0  0
    8.3176    5.2437    0.0000 C   0  0  0  0  0  0  0  0  0  0  0  0
    6.8245    5.3885    0.0000 C   0  0  0  0  0  0  0  0  0  0  0  0
    5.9529    4.1679    0.0000 C   0  0  0  0  0  0  0  0  0  0  0  0
    6.5742    2.8025    0.0000 C   0  0  0  0  0  0  0  0  0  0  0  0
    5.9751    1.4274    0.0000 C   0  0  0  0  0  0  0  0  0  0  0  0
  1  2  1  0  0  0  0
  2  3  3  0  0  0  0
  3  4  1  0  0  0  0
  4  5  1  0  0  0  0
  5  6  1  0  0  0  0
  5  7  1  0  0  0  0
  7  8  1  0  0  0  0
  7  9  1  0  0  0  0
  9 10  2  0  0  0  0
 10 11  1  0  0  0  0
 12 11  1  0  0  0  0
 11 29  1  0  0  0  0
 12 13  1  0  0  0  0
 14 12  1  0  0  0  0
 15 14  1  0  0  0  0
 16 15  1  0  0  0  0
 15 29  1  0  0  0  0
 17 16  1  0  0  0  0
 18 17  1  0  0  0  0
 17 28  2  0  0  0  0
 18 19  1  0  0  0  0
 25 18  2  0  0  0  0
 19 20  1  0  0  0  0
 20 21  1  0  0  0  0
 21 22  1  0  0  0  0
 22 23  2  0  0  0  0
 22 24  1  0  0  0  0
 26 25  1  0  0  0  0
 27 26  2  0  0  0  0
 28 27  1  0  0  0  0
 29 28  1  0  0  0  0
M  END
> <Inchi_key>
CTPOHARTNNSRSR-SEYXRHQNSA-N

> <Source>
Mulliner

> <ID>
HT0264

> <H_MFHB>
0

> <CAS>
88475-69-8

> <Cholestasis>


> <Name>
beraprost

> <Class>
0


$$$$