
  -INDIGO-08031710012D

 47 52  0  0  0  0  0  0  0  0999 V2000
    0.0000   -0.0001    0.0000 C   0  0  0  0  0  0  0  0  0  0  0  0
    1.4999   -0.0001    0.0000 O   0  0  0  0  0  0  0  0  0  0  0  0
    2.2499   -1.2990    0.0000 C   0  0  0  0  0  0  0  0  0  0  0  0
    1.4999   -2.5982    0.0000 C   0  0  0  0  0  0  0  0  0  0  0  0
    2.2499   -3.8971    0.0000 C   0  0  0  0  0  0  0  0  0  0  0  0
    3.7499   -3.8971    0.0000 C   0  0  0  0  0  0  0  0  0  0  0  0
    4.5001   -2.5982    0.0000 C   0  0  0  0  0  0  0  0  0  0  0  0
    6.0001   -2.5982    0.0000 C   0  0  0  0  0  0  0  0  0  0  0  0
    6.7501   -3.8971    0.0000 O   0  0  0  0  0  0  0  0  0  0  0  0
    6.7501   -1.2990    0.0000 C   0  0  0  0  0  0  0  0  0  0  0  0
    8.2500   -1.2990    0.0000 C   0  0  0  0  0  0  0  0  0  0  0  0
    9.0000   -2.5982    0.0000 O   0  0  0  0  0  0  0  0  0  0  0  0
    9.0000   -0.0001    0.0000 C   0  0  0  0  0  0  0  0  0  0  0  0
   10.4999   -0.0001    0.0000 C   0  0  0  0  0  0  0  0  0  0  0  0
   11.2499    1.2991    0.0000 C   0  0  0  0  0  0  0  0  0  0  0  0
   12.5490    2.0489    0.0000 O   0  0  0  0  0  0  0  0  0  0  0  0
   10.4999    2.5982    0.0000 C   0  0  0  0  0  0  0  0  0  0  0  0
    9.0000    2.5982    0.0000 C   0  0  0  0  0  0  0  0  0  0  0  0
    8.2500    3.8971    0.0000 O   0  0  0  0  0  0  0  0  0  0  0  0
    9.0000    5.1963    0.0000 C   0  0  0  0  0  0  0  0  0  0  0  0
   10.4999    5.1963    0.0000 C   0  0  0  0  0  0  0  0  0  0  0  0
   11.2499    6.4952    0.0000 C   0  0  0  0  0  0  0  0  0  0  0  0
   12.7501    6.4952    0.0000 N   0  0  0  0  0  0  0  0  0  0  0  0
   10.4999    7.7942    0.0000 C   0  0  0  0  0  0  0  0  0  0  0  0
   11.2499    9.0933    0.0000 O   0  0  0  0  0  0  0  0  0  0  0  0
    9.0000    7.7942    0.0000 C   0  0  0  0  0  0  0  0  0  0  0  0
    8.2500    9.0933    0.0000 C   0  0  0  0  0  0  0  0  0  0  0  0
    8.2500    6.4952    0.0000 O   0  0  0  0  0  0  0  0  0  0  0  0
    8.2500    1.2991    0.0000 C   0  0  0  0  0  0  0  0  0  0  0  0
    6.7501    1.2991    0.0000 C   0  0  0  0  0  0  0  0  0  0  0  0
    6.0001    2.5982    0.0000 O   0  0  0  0  0  0  0  0  0  0  0  0
    6.0001   -0.0001    0.0000 C   0  0  0  0  0  0  0  0  0  0  0  0
    4.5001   -0.0001    0.0000 C   0  0  0  0  0  0  0  0  0  0  0  0
    3.7499    1.2991    0.0000 O   0  0  0  0  0  0  0  0  0  0  0  0
    3.7499   -1.2990    0.0000 C   0  0  0  0  0  0  0  0  0  0  0  0
   12.5490    0.5490    0.0000 C   0  0  0  0  0  0  0  0  0  0  0  0
   13.8481    1.2991    0.0000 N   0  0  0  0  0  0  0  0  0  0  0  0
   15.1472    0.5490    0.0000 N   0  0  0  0  0  0  0  0  0  0  0  0
   16.4463    1.2991    0.0000 C   0  0  0  0  0  0  0  0  0  0  0  0
   16.4463    2.7990    0.0000 O   0  0  0  0  0  0  0  0  0  0  0  0
   17.7451    0.5490    0.0000 C   0  0  0  0  0  0  0  0  0  0  0  0
   19.0442    1.2991    0.0000 C   0  0  0  0  0  0  0  0  0  0  0  0
   20.3433    0.5490    0.0000 C   0  0  0  0  0  0  0  0  0  0  0  0
   20.3433   -0.9509    0.0000 C   0  0  0  0  0  0  0  0  0  0  0  0
   19.0442   -1.7010    0.0000 C   0  0  0  0  0  0  0  0  0  0  0  0
   17.7451   -0.9509    0.0000 C   0  0  0  0  0  0  0  0  0  0  0  0
   12.5490   -0.9509    0.0000 C   0  0  0  0  0  0  0  0  0  0  0  0
  1  2  1  0  0  0  0
  2  3  1  0  0  0  0
  4  3  2  0  0  0  0
  3 35  1  0  0  0  0
  5  4  1  0  0  0  0
  6  5  2  0  0  0  0
  7  6  1  0  0  0  0
  8  7  1  0  0  0  0
  7 35  2  0  0  0  0
  8  9  2  0  0  0  0
 10  8  1  0  0  0  0
 11 10  2  0  0  0  0
 10 32  1  0  0  0  0
 11 12  1  0  0  0  0
 13 11  1  0  0  0  0
 14 13  1  0  0  0  0
 13 29  2  0  0  0  0
 15 14  1  0  0  0  0
 15 16  1  0  0  0  0
 17 15  1  0  0  0  0
 15 36  1  0  0  0  0
 18 17  1  0  0  0  0
 18 19  1  0  0  0  0
 29 18  1  0  0  0  0
 19 20  1  0  0  0  0
 21 20  1  0  0  0  0
 20 28  1  0  0  0  0
 22 21  1  0  0  0  0
 22 23  1  0  0  0  0
 24 22  1  0  0  0  0
 24 25  1  0  0  0  0
 26 24  1  0  0  0  0
 26 27  1  0  0  0  0
 28 26  1  0  0  0  0
 30 29  1  0  0  0  0
 30 31  1  0  0  0  0
 32 30  2  0  0  0  0
 33 32  1  0  0  0  0
 33 34  2  0  0  0  0
 35 33  1  0  0  0  0
 36 37  2  0  0  0  0
 36 47  1  0  0  0  0
 37 38  1  0  0  0  0
 38 39  1  0  0  0  0
 39 40  2  0  0  0  0
 39 41  1  0  0  0  0
 42 41  2  0  0  0  0
 41 46  1  0  0  0  0
 43 42  1  0  0  0  0
 44 43  2  0  0  0  0
 45 44  1  0  0  0  0
 46 45  2  0  0  0  0
M  END
> <Inchi_key>
FBTUMDXHSRTGRV-ODQASSKESA-N

> <Source>
Mulliner

> <ID>
HT3975

> <H_MFHB>
0

> <CAS>


> <Cholestasis>


> <Name>


> <Class>
0

$$$$