

  -INDIGO-08031710012D

 24 24  0  0  0  0  0  0  0  0999 V2000
   -0.5510    8.6571    0.0000 C   0  0  0  0  0  0  0  0  0  0  0  0
    0.9370    8.8473    0.0000 C   0  0  0  0  0  0  0  0  0  0  0  0
    0.3682   10.2353    0.0000 C   0  0  0  0  0  0  0  0  0  0  0  0
    2.4370    8.8415    0.0000 C   0  0  0  0  0  0  0  0  0  0  0  0
    1.6821    7.5454    0.0000 C   0  0  0  0  0  0  0  0  0  0  0  0
    1.6763    6.0454    0.0000 C   0  0  0  0  0  0  0  0  0  0  0  0
    0.3745    5.3003    0.0000 O   0  0  0  0  0  0  0  0  0  0  0  0
    2.9725    5.2905    0.0000 N   0  0  0  0  0  0  0  0  0  0  0  0
    2.9667    3.7906    0.0000 C   0  0  0  0  0  0  0  0  0  0  0  0
    4.2630    3.0355    0.0000 C   0  0  0  0  0  0  0  0  0  0  0  0
    5.5648    3.7807    0.0000 C   0  0  0  0  0  0  0  0  0  0  0  0
    6.8611    3.0258    0.0000 C   0  0  0  0  0  0  0  0  0  0  0  0
    8.1629    3.7710    0.0000 C   0  0  0  0  0  0  0  0  0  0  0  0
    9.4592    3.0159    0.0000 C   0  0  0  0  0  0  0  0  0  0  0  0
   10.7610    3.7610    0.0000 S   0  0  0  0  0  0  0  0  0  0  0  0
   12.0572    3.0061    0.0000 C   0  0  0  0  0  0  0  0  0  0  0  0
   13.3590    3.7512    0.0000 C   0  0  0  0  0  0  0  0  0  0  0  0
   13.3648    5.2513    0.0000 N   0  0  0  0  0  0  0  0  0  0  0  0
   14.6553    2.9963    0.0000 C   0  0  0  0  0  0  0  0  0  0  0  0
   14.6495    1.4963    0.0000 O   0  0  0  0  0  0  0  0  0  0  0  0
   15.9571    3.7414    0.0000 O   0  0  0  0  0  0  0  0  0  0  0  0
    1.6649    3.0455    0.0000 C   0  0  0  0  0  0  0  0  0  0  0  0
    0.3687    3.8004    0.0000 O   0  0  0  0  0  0  0  0  0  0  0  0
    1.6594    1.5455    0.0000 O   0  0  0  0  0  0  0  0  0  0  0  0
  1  2  1  0  0  0  0
  2  3  1  0  0  0  0
  4  2  1  0  0  0  0
  2  5  1  0  0  0  0
  5  4  1  0  0  0  0
  5  6  1  0  0  0  0
  6  7  2  0  0  0  0
  6  8  1  0  0  0  0
  8  9  1  0  0  0  0
  9 10  2  0  0  0  0
  9 22  1  0  0  0  0
 10 11  1  0  0  0  0
 11 12  1  0  0  0  0
 12 13  1  0  0  0  0
 13 14  1  0  0  0  0
 14 15  1  0  0  0  0
 15 16  1  0  0  0  0
 16 17  1  0  0  0  0
 17 18  1  0  0  0  0
 17 19  1  0  0  0  0
 19 20  2  0  0  0  0
 19 21  1  0  0  0  0
 22 23  2  0  0  0  0
 22 24  1  0  0  0  0
M  END
> <Inchi_key>
DHSUYTOATWAVLW-SDQBBNPISA-N

> <Source>
Mulliner

> <ID>
HT0483

> <H_MFHB>
0

> <CAS>


> <Cholestasis>


> <Name>
cilastatin

> <Class>
0


$$$$