
  -INDIGO-08031710012D

 12 12  0  0  0  0  0  0  0  0999 V2000
    2.4698    2.4698    0.0000 C   0  0  0  0  0  0  0  0  0  0  0  0
    2.4698    0.9698    0.0000 N   0  0  0  0  0  0  0  0  0  0  0  0
    3.7689    0.2198    0.0000 C   0  0  0  0  0  0  0  0  0  0  0  0
    5.0679    0.9698    0.0000 C   0  0  0  0  0  0  0  0  0  0  0  0
    6.3669    1.7198    0.0000 C   0  0  0  0  0  0  0  0  0  0  0  0
    1.1708    0.2198    0.0000 C   0  0  0  0  0  0  0  0  0  0  0  0
   -0.1284    0.9698    0.0000 C   0  0  0  0  0  0  0  0  0  0  0  0
   -0.1284    2.4698    0.0000 C   0  0  0  0  0  0  0  0  0  0  0  0
   -1.4272    3.2198    0.0000 C   0  0  0  0  0  0  0  0  0  0  0  0
   -2.7264    2.4698    0.0000 C   0  0  0  0  0  0  0  0  0  0  0  0
   -2.7264    0.9698    0.0000 C   0  0  0  0  0  0  0  0  0  0  0  0
   -1.4272    0.2198    0.0000 C   0  0  0  0  0  0  0  0  0  0  0  0
  1  2  1  0  0  0  0
  2  3  1  0  0  0  0
  2  6  1  0  0  0  0
  3  4  1  0  0  0  0
  4  5  3  0  0  0  0
  6  7  1  0  0  0  0
  8  7  2  0  0  0  0
  7 12  1  0  0  0  0
  9  8  1  0  0  0  0
 10  9  2  0  0  0  0
 11 10  1  0  0  0  0
 12 11  2  0  0  0  0
M  END
> <Inchi_key>
DPWPWRLQFGFJFI-UHFFFAOYSA-N

> <Source>
Mulliner , Kotsampasakou

> <ID>
EK0400;HT1595

> <H_MFHB>
0

> <CAS>


> <Cholestasis>
0

> <Name>
pargyline

> <Class>
0

$$$$