
  -INDIGO-08031710012D

 21 22  0  0  0  0  0  0  0  0999 V2000
   19.7354    1.1452    0.0000 C   0  0  0  0  0  0  0  0  0  0  0  0
   18.4364    1.8952    0.0000 C   0  0  0  0  0  0  0  0  0  0  0  0
   17.1374    1.1452    0.0000 C   0  0  0  0  0  0  0  0  0  0  0  0
   15.8384    1.8952    0.0000 C   0  0  0  0  0  0  0  0  0  0  0  0
   14.5393    1.1452    0.0000 O   0  0  0  0  0  0  0  0  0  0  0  0
   13.2403    1.8952    0.0000 C   0  0  0  0  0  0  0  0  0  0  0  0
   13.2403    3.3952    0.0000 C   0  0  0  0  0  0  0  0  0  0  0  0
   11.9413    4.1452    0.0000 C   0  0  0  0  0  0  0  0  0  0  0  0
   10.6423    3.3952    0.0000 C   0  0  0  0  0  0  0  0  0  0  0  0
    9.3430    4.1452    0.0000 O   0  0  0  0  0  0  0  0  0  0  0  0
    8.0440    3.3952    0.0000 C   0  0  0  0  0  0  0  0  0  0  0  0
    6.7450    4.1452    0.0000 C   0  0  0  0  0  0  0  0  0  0  0  0
    5.4459    3.3952    0.0000 C   0  0  0  0  0  0  0  0  0  0  0  0
    4.1469    4.1452    0.0000 N   0  0  0  0  0  0  0  0  0  0  0  0
    2.8479    3.3952    0.0000 C   0  0  0  0  0  0  0  0  0  0  0  0
    1.5489    4.1452    0.0000 C   0  0  0  0  0  0  0  0  0  0  0  0
    1.5489    5.6452    0.0000 O   0  0  0  0  0  0  0  0  0  0  0  0
    2.8479    6.3952    0.0000 C   0  0  0  0  0  0  0  0  0  0  0  0
    4.1469    5.6452    0.0000 C   0  0  0  0  0  0  0  0  0  0  0  0
   10.6423    1.8952    0.0000 C   0  0  0  0  0  0  0  0  0  0  0  0
   11.9413    1.1452    0.0000 C   0  0  0  0  0  0  0  0  0  0  0  0
  1  2  1  0  0  0  0
  2  3  1  0  0  0  0
  3  4  1  0  0  0  0
  4  5  1  0  0  0  0
  5  6  1  0  0  0  0
  7  6  2  0  0  0  0
  6 21  1  0  0  0  0
  8  7  1  0  0  0  0
  9  8  2  0  0  0  0
  9 10  1  0  0  0  0
 20  9  1  0  0  0  0
 10 11  1  0  0  0  0
 11 12  1  0  0  0  0
 12 13  1  0  0  0  0
 13 14  1  0  0  0  0
 15 14  1  0  0  0  0
 14 19  1  0  0  0  0
 16 15  1  0  0  0  0
 17 16  1  0  0  0  0
 18 17  1  0  0  0  0
 19 18  1  0  0  0  0
 21 20  2  0  0  0  0
M  END
> <Inchi_key>
DQKXQSGTHWVTAD-UHFFFAOYSA-N

> <Source>
Mulliner

> <ID>
HT3317

> <H_MFHB>
0

> <CAS>


> <Cholestasis>


> <Name>


> <Class>
0

$$$$