
  -INDIGO-08031710012D

 23 23  0  0  0  0  0  0  0  0999 V2000
    9.2953    0.8636    0.0000 O   0  0  0  0  0  0  0  0  0  0  0  0
    8.5533    2.1673    0.0000 C   0  0  0  0  0  0  0  0  0  0  0  0
    9.3113    3.4616    0.0000 O   0  0  0  0  0  0  0  0  0  0  0  0
    7.0534    2.1766    0.0000 C   0  0  0  0  0  0  0  0  0  0  0  0
    6.3114    3.4802    0.0000 N   0  0  0  0  0  0  0  0  0  0  0  0
    7.0694    4.7746    0.0000 C   0  0  0  0  0  0  0  0  0  0  0  0
    6.3276    6.0782    0.0000 C   0  0  0  0  0  0  0  0  0  0  0  0
    4.8275    6.0875    0.0000 O   0  0  0  0  0  0  0  0  0  0  0  0
    7.0855    7.3726    0.0000 O   0  0  0  0  0  0  0  0  0  0  0  0
    4.8113    3.4895    0.0000 C   0  0  0  0  0  0  0  0  0  0  0  0
    3.9373    4.7085    0.0000 S   0  0  0  0  0  0  0  0  0  0  0  0
    2.5079    4.2537    0.0000 C   0  0  0  0  0  0  0  0  0  0  0  0
    1.2998    5.1429    0.0000 C   0  0  0  0  0  0  0  0  0  0  0  0
    1.4658    6.6337    0.0000 O   0  0  0  0  0  0  0  0  0  0  0  0
   -0.0743    4.5412    0.0000 O   0  0  0  0  0  0  0  0  0  0  0  0
    2.4986    2.7538    0.0000 C   0  0  0  0  0  0  0  0  0  0  0  0
    1.2797    1.8796    0.0000 C   0  0  0  0  0  0  0  0  0  0  0  0
    1.4272    0.3869    0.0000 C   0  0  0  0  0  0  0  0  0  0  0  0
    2.7937   -0.2317    0.0000 O   0  0  0  0  0  0  0  0  0  0  0  0
    0.2083   -0.4871    0.0000 O   0  0  0  0  0  0  0  0  0  0  0  0
    3.9223    2.2815    0.0000 C   0  0  0  0  0  0  0  0  0  0  0  0
    4.3770    0.8520    0.0000 C   0  0  0  0  0  0  0  0  0  0  0  0
    4.8315   -0.5774    0.0000 N   0  0  0  0  0  0  0  0  0  0  0  0
  1  2  1  0  0  0  0
  2  3  2  0  0  0  0
  2  4  1  0  0  0  0
  4  5  1  0  0  0  0
  5  6  1  0  0  0  0
  5 10  1  0  0  0  0
  6  7  1  0  0  0  0
  7  8  2  0  0  0  0
  7  9  1  0  0  0  0
 11 10  1  0  0  0  0
 10 21  2  0  0  0  0
 12 11  1  0  0  0  0
 12 13  1  0  0  0  0
 16 12  2  0  0  0  0
 13 14  2  0  0  0  0
 13 15  1  0  0  0  0
 16 17  1  0  0  0  0
 21 16  1  0  0  0  0
 17 18  1  0  0  0  0
 18 19  2  0  0  0  0
 18 20  1  0  0  0  0
 21 22  1  0  0  0  0
 22 23  3  0  0  0  0
M  END
> <Inchi_key>
DJSXNILVACEBLP-UHFFFAOYSA-N

> <Source>
Mulliner

> <ID>
HT1921

> <H_MFHB>
0

> <CAS>


> <Cholestasis>


> <Name>
strontium ranelate

> <Class>
0

$$$$