

  -INDIGO-08031710012D

 14 16  0  0  0  0  0  0  0  0999 V2000
    2.9956   -1.7003    0.0000 C   0  0  0  0  0  0  0  0  0  0  0  0
    2.4738   -0.2940    0.0000 C   0  0  0  0  0  0  0  0  0  0  0  0
    1.1896   -1.1330    0.0000 C   0  0  0  0  0  0  0  0  0  0  0  0
    0.0860   -0.4369    0.0000 C   0  0  0  0  0  0  0  0  0  0  0  0
   -0.5753    0.6299    0.0000 C   0  0  0  0  0  0  0  0  0  0  0  0
    0.7418    0.0424    0.0000 C   0  0  0  0  0  0  0  0  0  0  0  0
    0.9938   -2.5015    0.0000 O   0  0  0  0  0  0  0  0  0  0  0  0
    1.9299    0.7263    0.0000 C   0  0  0  0  0  0  0  0  0  0  0  0
    0.8627    1.7803    0.0000 C   0  0  0  0  0  0  0  0  0  0  0  0
    2.7423    1.9242    0.0000 C   0  0  0  0  0  0  0  0  0  0  0  0
    2.2698    3.3479    0.0000 O   0  0  0  0  0  0  0  0  0  0  0  0
    4.1593    1.4324    0.0000 O   0  0  0  0  0  0  0  0  0  0  0  0
    4.1291   -0.0685    0.0000 C   0  0  0  0  0  0  0  0  0  0  0  0
    5.2492   -1.0661    0.0000 O   0  0  0  0  0  0  0  0  0  0  0  0
  1  2  1  0  0  0  0
  3  2  1  0  0  0  0
  8  2  1  0  0  0  0
  2 13  1  0  0  0  0
  3  4  1  0  0  0  0
  7  3  1  0  0  0  0
  4  5  1  0  0  0  0
  5  6  1  0  0  0  0
  6  7  1  0  0  0  0
  8  6  1  0  0  0  0
  8  9  1  0  0  0  0
 10  8  1  0  0  0  0
 10 11  2  0  0  0  0
 12 10  1  0  0  0  0
 13 12  1  0  0  0  0
 13 14  2  0  0  0  0
M  END
> <Inchi_key>
DHZBEENLJMYSHQ-UHFFFAOYSA-N

> <Source>
Mulliner

> <ID>
HT2837

> <H_MFHB>
0

> <CAS>


> <Cholestasis>


> <Name>


> <Class>
0


$$$$