
  -INDIGO-08031710012D

 18 20  0  0  0  0  0  0  0  0999 V2000
    8.2656   -6.0053    0.0000 C   0  0  0  0  0  0  0  0  0  0  0  0
    7.8021   -4.5787    0.0000 C   0  0  0  0  0  0  0  0  0  0  0  0
    8.8058   -3.4640    0.0000 C   0  0  0  0  0  0  0  0  0  0  0  0
    6.3348   -4.2668    0.0000 C   0  0  0  0  0  0  0  0  0  0  0  0
    5.8714   -2.8403    0.0000 N   0  0  0  0  0  0  0  0  0  0  0  0
    6.7529   -1.6267    0.0000 C   0  0  0  0  0  0  0  0  0  0  0  0
    5.8714   -0.4132    0.0000 N   0  0  0  0  0  0  0  0  0  0  0  0
    4.4446   -0.8767    0.0000 C   0  0  0  0  0  0  0  0  0  0  0  0
    3.1457   -0.1267    0.0000 C   0  0  0  0  0  0  0  0  0  0  0  0
    3.1457    1.3733    0.0000 N   0  0  0  0  0  0  0  0  0  0  0  0
    1.8467   -0.8767    0.0000 N   0  0  0  0  0  0  0  0  0  0  0  0
    1.8467   -2.3767    0.0000 C   0  0  0  0  0  0  0  0  0  0  0  0
    0.5476   -3.1267    0.0000 C   0  0  0  0  0  0  0  0  0  0  0  0
    0.5476   -4.6267    0.0000 C   0  0  0  0  0  0  0  0  0  0  0  0
    1.8467   -5.3767    0.0000 C   0  0  0  0  0  0  0  0  0  0  0  0
    3.1457   -4.6267    0.0000 C   0  0  0  0  0  0  0  0  0  0  0  0
    3.1457   -3.1267    0.0000 C   0  0  0  0  0  0  0  0  0  0  0  0
    4.4446   -2.3767    0.0000 C   0  0  0  0  0  0  0  0  0  0  0  0
  1  2  1  0  0  0  0
  2  3  1  0  0  0  0
  2  4  1  0  0  0  0
  4  5  1  0  0  0  0
  6  5  1  0  0  0  0
  5 18  1  0  0  0  0
  7  6  2  0  0  0  0
  8  7  1  0  0  0  0
  9  8  1  0  0  0  0
  8 18  2  0  0  0  0
  9 10  1  0  0  0  0
 11  9  2  0  0  0  0
 12 11  1  0  0  0  0
 13 12  1  0  0  0  0
 12 17  2  0  0  0  0
 14 13  2  0  0  0  0
 15 14  1  0  0  0  0
 16 15  2  0  0  0  0
 17 16  1  0  0  0  0
 18 17  1  0  0  0  0
M  END
> <Inchi_key>
DOUYETYNHWVLEO-UHFFFAOYSA-N

> <Source>
Mulliner , Kotsampasakou

> <ID>
EK0269;HT1084

> <H_MFHB>
0

> <CAS>


> <Cholestasis>
0

> <Name>
imiquimod

> <Class>
0

$$$$