
  -INDIGO-08031709442D

 27 29  0  0  0  0  0  0  0  0999 V2000
    0.0000   -2.1582    0.0000 Br  0  0  0  0  0  0  0  0  0  0  0  0
    1.5001   -2.1582    0.0000 C   0  0  0  0  0  0  0  0  0  0  0  0
    2.2499   -3.4572    0.0000 C   0  0  0  0  0  0  0  0  0  0  0  0
    3.7501   -3.4572    0.0000 C   0  0  0  0  0  0  0  0  0  0  0  0
    4.5001   -4.7562    0.0000 Cl  0  0  0  0  0  0  0  0  0  0  0  0
    4.5001   -2.1582    0.0000 C   0  0  0  0  0  0  0  0  0  0  0  0
    6.0000   -2.1582    0.0000 N   0  0  0  0  0  0  0  0  0  0  0  0
    6.7501   -0.8591    0.0000 C   0  0  0  0  0  0  0  0  0  0  0  0
    8.2499   -0.8591    0.0000 C   0  0  0  0  0  0  0  0  0  0  0  0
    9.0000    0.4399    0.0000 C   0  0  0  0  0  0  0  0  0  0  0  0
    8.2499    1.7390    0.0000 C   0  0  0  0  0  0  0  0  0  0  0  0
    8.7134    3.1654    0.0000 N   0  0  0  0  0  0  0  0  0  0  0  0
    7.5001    4.0472    0.0000 C   0  0  0  0  0  0  0  0  0  0  0  0
    6.2866    3.1654    0.0000 N   0  0  0  0  0  0  0  0  0  0  0  0
    6.7501    1.7390    0.0000 C   0  0  0  0  0  0  0  0  0  0  0  0
    6.0000    0.4399    0.0000 C   0  0  0  0  0  0  0  0  0  0  0  0
    4.5001    0.4399    0.0000 F   0  0  0  0  0  0  0  0  0  0  0  0
   10.1401    3.6292    0.0000 C   0  0  0  0  0  0  0  0  0  0  0  0
    9.0000   -2.1582    0.0000 C   0  0  0  0  0  0  0  0  0  0  0  0
    8.2499   -3.4572    0.0000 O   0  0  0  0  0  0  0  0  0  0  0  0
   10.5001   -2.1582    0.0000 N   0  0  0  0  0  0  0  0  0  0  0  0
   11.2499   -3.4572    0.0000 O   0  0  0  0  0  0  0  0  0  0  0  0
   12.7501   -3.4572    0.0000 C   0  0  0  0  0  0  0  0  0  0  0  0
   13.5001   -4.7562    0.0000 C   0  0  0  0  0  0  0  0  0  0  0  0
   15.0000   -4.7562    0.0000 O   0  0  0  0  0  0  0  0  0  0  0  0
    3.7501   -0.8591    0.0000 C   0  0  0  0  0  0  0  0  0  0  0  0
    2.2499   -0.8591    0.0000 C   0  0  0  0  0  0  0  0  0  0  0  0
  1  2  1  0  0  0  0
  3  2  2  0  0  0  0
  2 27  1  0  0  0  0
  4  3  1  0  0  0  0
  4  5  1  0  0  0  0
  6  4  2  0  0  0  0
  6  7  1  0  0  0  0
 26  6  1  0  0  0  0
  7  8  1  0  0  0  0
  9  8  2  0  0  0  0
  8 16  1  0  0  0  0
 10  9  1  0  0  0  0
  9 19  1  0  0  0  0
 11 10  2  0  0  0  0
 12 11  1  0  0  0  0
 11 15  1  0  0  0  0
 13 12  1  0  0  0  0
 12 18  1  0  0  0  0
 14 13  2  0  0  0  0
 15 14  1  0  0  0  0
 16 15  2  0  0  0  0
 16 17  1  0  0  0  0
 19 20  2  0  0  0  0
 19 21  1  0  0  0  0
 21 22  1  0  0  0  0
 22 23  1  0  0  0  0
 23 24  1  0  0  0  0
 24 25  1  0  0  0  0
 27 26  2  0  0  0  0
M  END
> <Inchi_key>
CYOHGALHFOKKQC-UHFFFAOYSA-N

> <Source>
Kotsampasakou

> <ID>
EK0480

> <H_MFHB>


> <CAS>


> <Cholestasis>
0

> <Name>
selumetinib

> <Class>
0

$$$$