

  -INDIGO-08031710012D

 28 31  0  0  0  0  0  0  0  0999 V2000
    1.5013    7.1479    0.0000 O   0  0  0  0  0  0  0  0  0  0  0  0
    0.2021    6.3979    0.0000 C   0  0  0  0  0  0  0  0  0  0  0  0
   -1.0968    7.1479    0.0000 O   0  0  0  0  0  0  0  0  0  0  0  0
    0.2021    4.8979    0.0000 C   0  0  0  0  0  0  0  0  0  0  0  0
   -1.0968    4.1479    0.0000 C   0  0  0  0  0  0  0  0  0  0  0  0
   -2.3960    4.8979    0.0000 C   0  0  0  0  0  0  0  0  0  0  0  0
   -3.6949    4.1479    0.0000 N   0  0  0  0  0  0  0  0  0  0  0  0
   -3.6949    2.6479    0.0000 C   0  0  0  0  0  0  0  0  0  0  0  0
   -4.9941    1.8979    0.0000 C   0  0  0  0  0  0  0  0  0  0  0  0
   -6.2930    2.6479    0.0000 C   0  0  0  0  0  0  0  0  0  0  0  0
   -6.2930    4.1479    0.0000 C   0  0  0  0  0  0  0  0  0  0  0  0
   -4.9941    4.8979    0.0000 C   0  0  0  0  0  0  0  0  0  0  0  0
   -1.0968    2.6479    0.0000 C   0  0  0  0  0  0  0  0  0  0  0  0
    0.2021    1.8979    0.0000 S   0  0  0  0  0  0  0  0  0  0  0  0
    1.5013    2.6479    0.0000 C   0  0  0  0  0  0  0  0  0  0  0  0
    3.0012    2.6479    0.0000 C   0  0  0  0  0  0  0  0  0  0  0  0
    4.0618    1.5873    0.0000 N   0  0  0  0  0  0  0  0  0  0  0  0
    5.5106    1.9755    0.0000 C   0  0  0  0  0  0  0  0  0  0  0  0
    5.8991    3.4244    0.0000 O   0  0  0  0  0  0  0  0  0  0  0  0
    6.5715    0.9148    0.0000 C   0  0  0  0  0  0  0  0  0  0  0  0
    8.0203    1.3030    0.0000 C   0  0  0  0  0  0  0  0  0  0  0  0
    8.5577    2.7034    0.0000 C   0  0  0  0  0  0  0  0  0  0  0  0
   10.0558    2.6249    0.0000 C   0  0  0  0  0  0  0  0  0  0  0  0
   10.4440    1.1760    0.0000 C   0  0  0  0  0  0  0  0  0  0  0  0
    9.1859    0.3591    0.0000 S   0  0  0  0  0  0  0  0  0  0  0  0
    3.0012    4.1479    0.0000 C   0  0  0  0  0  0  0  0  0  0  0  0
    4.0618    5.2086    0.0000 O   0  0  0  0  0  0  0  0  0  0  0  0
    1.5013    4.1479    0.0000 N   0  0  0  0  0  0  0  0  0  0  0  0
  1  2  1  0  0  0  0
  2  3  2  0  0  0  0
  2  4  1  0  0  0  0
  5  4  2  0  0  0  0
  4 28  1  0  0  0  0
  5  6  1  0  0  0  0
 13  5  1  0  0  0  0
  6  7  1  0  0  0  0
  8  7  2  0  0  0  0
  7 12  1  0  0  0  0
  9  8  1  0  0  0  0
 10  9  2  0  0  0  0
 11 10  1  0  0  0  0
 12 11  2  0  0  0  0
 14 13  1  0  0  0  0
 15 14  1  0  0  0  0
 16 15  1  0  0  0  0
 15 28  1  0  0  0  0
 16 17  1  0  0  0  0
 26 16  1  0  0  0  0
 17 18  1  0  0  0  0
 18 19  2  0  0  0  0
 18 20  1  0  0  0  0
 20 21  1  0  0  0  0
 22 21  2  0  0  0  0
 21 25  1  0  0  0  0
 23 22  1  0  0  0  0
 24 23  2  0  0  0  0
 25 24  1  0  0  0  0
 26 27  2  0  0  0  0
 28 26  1  0  0  0  0
M  CHG  2   1  -1   7   1
M  END
> <Inchi_key>
CZTQZXZIADLWOZ-UHFFFAOYSA-N

> <Source>
Mulliner

> <ID>
HT0396

> <H_MFHB>
0

> <CAS>
50-59-9

> <Cholestasis>


> <Name>
cefaloridine;cephaloridine

> <Class>
0


$$$$