

  -INDIGO-08031710012D

 42 47  0  0  0  0  0  0  0  0999 V2000
   -0.0324   -0.0276    0.0000 C   0  0  0  0  0  0  0  0  0  0  0  0
    1.4677   -0.0128    0.0000 O   0  0  0  0  0  0  0  0  0  0  0  0
    2.2302   -1.3043    0.0000 C   0  0  0  0  0  0  0  0  0  0  0  0
    1.4930   -2.6107    0.0000 C   0  0  0  0  0  0  0  0  0  0  0  0
    2.2558   -3.9024    0.0000 C   0  0  0  0  0  0  0  0  0  0  0  0
    3.7559   -3.8877    0.0000 C   0  0  0  0  0  0  0  0  0  0  0  0
    4.5184   -5.1791    0.0000 C   0  0  0  0  0  0  0  0  0  0  0  0
    6.0184   -5.1644    0.0000 N   0  0  0  0  0  0  0  0  0  0  0  0
    6.7812   -6.4561    0.0000 C   0  0  0  0  0  0  0  0  0  0  0  0
    8.2810   -6.4414    0.0000 C   0  0  0  0  0  0  0  0  0  0  0  0
    9.0182   -5.1350    0.0000 C   0  0  0  0  0  0  0  0  0  0  0  0
    8.2554   -3.8434    0.0000 C   0  0  0  0  0  0  0  0  0  0  0  0
    9.2481   -2.7190    0.0000 N   0  0  0  0  0  0  0  0  0  0  0  0
   10.6244   -3.3155    0.0000 C   0  0  0  0  0  0  0  0  0  0  0  0
   11.9887   -2.6919    0.0000 C   0  0  0  0  0  0  0  0  0  0  0  0
   13.2109   -3.5617    0.0000 C   0  0  0  0  0  0  0  0  0  0  0  0
   13.0688   -5.0550    0.0000 C   0  0  0  0  0  0  0  0  0  0  0  0
   11.7045   -5.6786    0.0000 C   0  0  0  0  0  0  0  0  0  0  0  0
   10.4823   -4.8088    0.0000 C   0  0  0  0  0  0  0  0  0  0  0  0
    6.7557   -3.8582    0.0000 C   0  0  0  0  0  0  0  0  0  0  0  0
    5.9928   -2.5666    0.0000 C   0  0  0  0  0  0  0  0  0  0  0  0
    4.4931   -2.5813    0.0000 C   0  0  0  0  0  0  0  0  0  0  0  0
    3.7303   -1.2896    0.0000 C   0  0  0  0  0  0  0  0  0  0  0  0
    4.4675    0.0167    0.0000 C   0  0  0  0  0  0  0  0  0  0  0  0
    5.9673    0.0315    0.0000 O   0  0  0  0  0  0  0  0  0  0  0  0
    3.7047    1.3082    0.0000 O   0  0  0  0  0  0  0  0  0  0  0  0
    4.4419    2.6146    0.0000 C   0  0  0  0  0  0  0  0  0  0  0  0
   -0.0068   -2.6254    0.0000 O   0  0  0  0  0  0  0  0  0  0  0  0
   -0.7440   -3.9318    0.0000 C   0  0  0  0  0  0  0  0  0  0  0  0
    0.0188   -5.2234    0.0000 O   0  0  0  0  0  0  0  0  0  0  0  0
   -2.2441   -3.9465    0.0000 C   0  0  0  0  0  0  0  0  0  0  0  0
   -2.9813   -5.2529    0.0000 C   0  0  0  0  0  0  0  0  0  0  0  0
   -4.4811   -5.2676    0.0000 C   0  0  0  0  0  0  0  0  0  0  0  0
   -5.2183   -6.5739    0.0000 O   0  0  0  0  0  0  0  0  0  0  0  0
   -4.4555   -7.8656    0.0000 C   0  0  0  0  0  0  0  0  0  0  0  0
   -5.2439   -3.9759    0.0000 C   0  0  0  0  0  0  0  0  0  0  0  0
   -6.7437   -3.9906    0.0000 O   0  0  0  0  0  0  0  0  0  0  0  0
   -7.4809   -5.2972    0.0000 C   0  0  0  0  0  0  0  0  0  0  0  0
   -4.5067   -2.6697    0.0000 C   0  0  0  0  0  0  0  0  0  0  0  0
   -5.2692   -1.3781    0.0000 O   0  0  0  0  0  0  0  0  0  0  0  0
   -4.5322   -0.0717    0.0000 C   0  0  0  0  0  0  0  0  0  0  0  0
   -3.0066   -2.6548    0.0000 C   0  0  0  0  0  0  0  0  0  0  0  0
  1  2  1  0  0  0  0
  2  3  1  0  0  0  0
  4  3  1  0  0  0  0
  3 23  1  0  0  0  0
  5  4  1  0  0  0  0
  4 28  1  0  0  0  0
  6  5  1  0  0  0  0
  7  6  1  0  0  0  0
  6 22  1  0  0  0  0
  8  7  1  0  0  0  0
  9  8  1  0  0  0  0
  8 20  1  0  0  0  0
 10  9  1  0  0  0  0
 11 10  1  0  0  0  0
 11 12  2  0  0  0  0
 19 11  1  0  0  0  0
 12 13  1  0  0  0  0
 20 12  1  0  0  0  0
 13 14  1  0  0  0  0
 15 14  1  0  0  0  0
 14 19  2  0  0  0  0
 16 15  2  0  0  0  0
 17 16  1  0  0  0  0
 18 17  2  0  0  0  0
 19 18  1  0  0  0  0
 21 20  1  0  0  0  0
 22 21  1  0  0  0  0
 23 22  1  0  0  0  0
 23 24  1  0  0  0  0
 24 25  2  0  0  0  0
 24 26  1  0  0  0  0
 26 27  1  0  0  0  0
 28 29  1  0  0  0  0
 29 30  2  0  0  0  0
 29 31  1  0  0  0  0
 32 31  2  0  0  0  0
 31 42  1  0  0  0  0
 33 32  1  0  0  0  0
 33 34  1  0  0  0  0
 36 33  2  0  0  0  0
 34 35  1  0  0  0  0
 36 37  1  0  0  0  0
 39 36  1  0  0  0  0
 37 38  1  0  0  0  0
 39 40  1  0  0  0  0
 42 39  2  0  0  0  0
 40 41  1  0  0  0  0
M  END
> <Inchi_key>
CVBMAZKKCSYWQR-UHFFFAOYSA-N

> <Source>
Mulliner

> <ID>
HT0609

> <H_MFHB>
0

> <CAS>


> <Cholestasis>


> <Name>
deserpidine

> <Class>
0


$$$$