
  -INDIGO-08031710012D

 28 31  0  0  0  0  0  0  0  0999 V2000
    0.5802    2.1797    0.0000 C   0  0  0  0  0  0  0  0  0  0  0  0
    1.8817    1.4339    0.0000 C   0  0  0  0  0  0  0  0  0  0  0  0
    3.2500    2.0485    0.0000 C   0  0  0  0  0  0  0  0  0  0  0  0
    4.2573    0.9370    0.0000 C   0  0  0  0  0  0  0  0  0  0  0  0
    5.7572    0.9419    0.0000 C   0  0  0  0  0  0  0  0  0  0  0  0
    6.5031    2.2434    0.0000 C   0  0  0  0  0  0  0  0  0  0  0  0
    8.0030    2.2483    0.0000 C   0  0  0  0  0  0  0  0  0  0  0  0
    8.7572    0.9517    0.0000 C   0  0  0  0  0  0  0  0  0  0  0  0
   10.2574    0.9566    0.0000 C   0  0  0  0  0  0  0  0  0  0  0  0
   11.0116   -0.3400    0.0000 C   0  0  0  0  0  0  0  0  0  0  0  0
   12.5115   -0.3351    0.0000 O   0  0  0  0  0  0  0  0  0  0  0  0
   10.2659   -1.6415    0.0000 C   0  0  0  0  0  0  0  0  0  0  0  0
    8.7658   -1.6463    0.0000 C   0  0  0  0  0  0  0  0  0  0  0  0
    8.0116   -0.3498    0.0000 C   0  0  0  0  0  0  0  0  0  0  0  0
    7.2659   -1.6512    0.0000 C   0  0  0  0  0  0  0  0  0  0  0  0
    6.5116   -0.3547    0.0000 C   0  0  0  0  0  0  0  0  0  0  0  0
    5.0115   -0.3595    0.0000 F   0  0  0  0  0  0  0  0  0  0  0  0
    5.7657   -1.6561    0.0000 C   0  0  0  0  0  0  0  0  0  0  0  0
    6.5202   -2.9527    0.0000 O   0  0  0  0  0  0  0  0  0  0  0  0
    4.2658   -1.6610    0.0000 C   0  0  0  0  0  0  0  0  0  0  0  0
    3.5116   -0.3644    0.0000 C   0  0  0  0  0  0  0  0  0  0  0  0
    2.6551   -1.5960    0.0000 C   0  0  0  0  0  0  0  0  0  0  0  0
    2.0434   -0.0574    0.0000 C   0  0  0  0  0  0  0  0  0  0  0  0
    1.5596   -1.4772    0.0000 O   0  0  0  0  0  0  0  0  0  0  0  0
    0.5627   -0.2968    0.0000 C   0  0  0  0  0  0  0  0  0  0  0  0
   -0.3852    0.8658    0.0000 O   0  0  0  0  0  0  0  0  0  0  0  0
    0.0296   -1.6990    0.0000 C   0  0  0  0  0  0  0  0  0  0  0  0
   -1.4511   -1.9384    0.0000 Cl  0  0  0  0  0  0  0  0  0  0  0  0
  1  2  1  0  0  0  0
  3  2  1  0  0  0  0
  2 23  1  0  0  0  0
  4  3  1  0  0  0  0
  5  4  1  0  0  0  0
  4 21  1  0  0  0  0
  6  5  1  0  0  0  0
  5 16  1  0  0  0  0
  7  6  1  0  0  0  0
  8  7  1  0  0  0  0
  9  8  2  0  0  0  0
  8 14  1  0  0  0  0
 10  9  1  0  0  0  0
 10 11  2  0  0  0  0
 12 10  1  0  0  0  0
 13 12  2  0  0  0  0
 14 13  1  0  0  0  0
 14 15  1  0  0  0  0
 16 14  1  0  0  0  0
 16 17  1  0  0  0  0
 18 16  1  0  0  0  0
 18 19  1  0  0  0  0
 20 18  1  0  0  0  0
 21 20  1  0  0  0  0
 21 22  1  0  0  0  0
 23 21  1  0  0  0  0
 23 24  1  0  0  0  0
 23 25  1  0  0  0  0
 25 26  2  0  0  0  0
 25 27  1  0  0  0  0
 27 28  1  0  0  0  0
M  END
> <Inchi_key>
FCSHDIVRCWTZOX-UHFFFAOYSA-N

> <Source>
Mulliner , Kotsampasakou

> <ID>
EK0130;HT0516

> <H_MFHB>
0

> <CAS>


> <Cholestasis>
0

> <Name>
clobetasol

> <Class>
0

$$$$