

  -INDIGO-08031710012D

 23 25  0  0  0  0  0  0  0  0999 V2000
   16.8086    0.0000    0.0000 C   0  0  0  0  0  0  0  0  0  0  0  0
   15.3085    0.0000    0.0000 C   0  0  0  0  0  0  0  0  0  0  0  0
   14.5587   -1.2990    0.0000 C   0  0  0  0  0  0  0  0  0  0  0  0
   13.0586   -1.2990    0.0000 C   0  0  0  0  0  0  0  0  0  0  0  0
   12.3086   -2.5981    0.0000 C   0  0  0  0  0  0  0  0  0  0  0  0
   10.8085   -2.5981    0.0000 C   0  0  0  0  0  0  0  0  0  0  0  0
   10.0587   -1.2990    0.0000 C   0  0  0  0  0  0  0  0  0  0  0  0
    8.5586   -1.2990    0.0000 C   0  0  0  0  0  0  0  0  0  0  0  0
    7.8086    0.0000    0.0000 O   0  0  0  0  0  0  0  0  0  0  0  0
    7.8086   -2.5981    0.0000 C   0  0  0  0  0  0  0  0  0  0  0  0
    6.3085   -2.5981    0.0000 C   0  0  0  0  0  0  0  0  0  0  0  0
    5.5587   -1.2990    0.0000 C   0  0  0  0  0  0  0  0  0  0  0  0
    4.0586   -1.2990    0.0000 C   0  0  0  0  0  0  0  0  0  0  0  0
    3.3086    0.0000    0.0000 C   0  0  0  0  0  0  0  0  0  0  0  0
    3.3086   -2.5981    0.0000 C   0  0  0  0  0  0  0  0  0  0  0  0
    4.0586   -3.8972    0.0000 C   0  0  0  0  0  0  0  0  0  0  0  0
    5.5587   -3.8972    0.0000 C   0  0  0  0  0  0  0  0  0  0  0  0
    6.3085   -5.1962    0.0000 C   0  0  0  0  0  0  0  0  0  0  0  0
    5.0095   -5.9462    0.0000 C   0  0  0  0  0  0  0  0  0  0  0  0
    6.3085   -6.6962    0.0000 C   0  0  0  0  0  0  0  0  0  0  0  0
    7.8086   -5.1962    0.0000 O   0  0  0  0  0  0  0  0  0  0  0  0
    8.5586   -3.8972    0.0000 C   0  0  0  0  0  0  0  0  0  0  0  0
   10.0587   -3.8972    0.0000 C   0  0  0  0  0  0  0  0  0  0  0  0
  1  2  1  0  0  0  0
  2  3  1  0  0  0  0
  3  4  1  0  0  0  0
  4  5  1  0  0  0  0
  5  6  1  0  0  0  0
  7  6  2  0  0  0  0
  6 23  1  0  0  0  0
  8  7  1  0  0  0  0
  8  9  1  0  0  0  0
 10  8  2  0  0  0  0
 11 10  1  0  0  0  0
 10 22  1  0  0  0  0
 12 11  1  0  0  0  0
 11 17  1  0  0  0  0
 13 12  2  0  0  0  0
 13 14  1  0  0  0  0
 15 13  1  0  0  0  0
 16 15  1  0  0  0  0
 17 16  1  0  0  0  0
 18 17  1  0  0  0  0
 18 19  1  0  0  0  0
 18 20  1  0  0  0  0
 21 18  1  0  0  0  0
 22 21  1  0  0  0  0
 23 22  2  0  0  0  0
M  END
> <Inchi_key>
CYQFCXCEBYINGO-UHFFFAOYSA-N

> <Source>
Mulliner , Kotsampasakou

> <ID>
EK0151;HT0724

> <H_MFHB>
0

> <CAS>
1972-08-3;26514

> <Cholestasis>
0

> <Name>
dronabinol;tetrahydrocannabinol;delta9-tetrahydrocannabinol (dronabinol)

> <Class>
0


$$$$