

  -INDIGO-08031710012D

 28 31  0  0  0  0  0  0  0  0999 V2000
   10.2269   -2.1681    0.0000 C   0  0  0  0  0  0  0  0  0  0  0  0
    9.4769   -3.4671    0.0000 C   0  0  0  0  0  0  0  0  0  0  0  0
    7.9769   -3.4671    0.0000 C   0  0  0  0  0  0  0  0  0  0  0  0
    7.2269   -4.7661    0.0000 N   0  0  0  0  0  0  0  0  0  0  0  0
    7.9769   -6.0652    0.0000 C   0  0  0  0  0  0  0  0  0  0  0  0
    9.4769   -6.0652    0.0000 C   0  0  0  0  0  0  0  0  0  0  0  0
   10.2269   -7.3642    0.0000 C   0  0  0  0  0  0  0  0  0  0  0  0
   10.2269   -4.7661    0.0000 N   0  0  0  0  0  0  0  0  0  0  0  0
    5.7268   -4.7661    0.0000 C   0  0  0  0  0  0  0  0  0  0  0  0
    4.9768   -6.0652    0.0000 C   0  0  0  0  0  0  0  0  0  0  0  0
    5.7268   -7.3642    0.0000 F   0  0  0  0  0  0  0  0  0  0  0  0
    3.4770   -6.0652    0.0000 C   0  0  0  0  0  0  0  0  0  0  0  0
    2.7270   -7.3642    0.0000 N   0  0  0  0  0  0  0  0  0  0  0  0
    2.7270   -4.7661    0.0000 C   0  0  0  0  0  0  0  0  0  0  0  0
    1.2269   -4.7661    0.0000 C   0  0  0  0  0  0  0  0  0  0  0  0
    0.4769   -6.0652    0.0000 O   0  0  0  0  0  0  0  0  0  0  0  0
    0.4769   -3.4671    0.0000 C   0  0  0  0  0  0  0  0  0  0  0  0
    1.2269   -2.1681    0.0000 C   0  0  0  0  0  0  0  0  0  0  0  0
    2.7270   -2.1681    0.0000 N   0  0  0  0  0  0  0  0  0  0  0  0
    3.4770   -0.8691    0.0000 C   0  0  0  0  0  0  0  0  0  0  0  0
    4.7760   -0.1191    0.0000 C   0  0  0  0  0  0  0  0  0  0  0  0
    3.4770    0.6309    0.0000 C   0  0  0  0  0  0  0  0  0  0  0  0
    3.4770   -3.4671    0.0000 C   0  0  0  0  0  0  0  0  0  0  0  0
    4.9768   -3.4671    0.0000 C   0  0  0  0  0  0  0  0  0  0  0  0
    5.7268   -2.1681    0.0000 F   0  0  0  0  0  0  0  0  0  0  0  0
   -1.0231   -3.4671    0.0000 C   0  0  0  0  0  0  0  0  0  0  0  0
   -1.7731   -4.7661    0.0000 O   0  0  0  0  0  0  0  0  0  0  0  0
   -1.7731   -2.1681    0.0000 O   0  0  0  0  0  0  0  0  0  0  0  0
  1  2  1  0  0  0  0
  3  2  1  0  0  0  0
  2  8  1  0  0  0  0
  4  3  1  0  0  0  0
  5  4  1  0  0  0  0
  4  9  1  0  0  0  0
  6  5  1  0  0  0  0
  6  7  1  0  0  0  0
  8  6  1  0  0  0  0
 10  9  2  0  0  0  0
  9 24  1  0  0  0  0
 10 11  1  0  0  0  0
 12 10  1  0  0  0  0
 12 13  1  0  0  0  0
 14 12  2  0  0  0  0
 15 14  1  0  0  0  0
 14 23  1  0  0  0  0
 15 16  2  0  0  0  0
 17 15  1  0  0  0  0
 18 17  2  0  0  0  0
 17 26  1  0  0  0  0
 19 18  1  0  0  0  0
 19 20  1  0  0  0  0
 23 19  1  0  0  0  0
 21 20  1  0  0  0  0
 20 22  1  0  0  0  0
 22 21  1  0  0  0  0
 24 23  2  0  0  0  0
 24 25  1  0  0  0  0
 26 27  2  0  0  0  0
 26 28  1  0  0  0  0
M  END
> <Inchi_key>
DZZWHBIBMUVIIW-UHFFFAOYSA-N

> <Source>
Mulliner

> <ID>
HT1908

> <H_MFHB>
0

> <CAS>
110871-86-8

> <Cholestasis>


> <Name>
sparfloxacin

> <Class>
0


$$$$