
  -INDIGO-08031710012D

 27 30  0  0  0  0  0  0  0  0999 V2000
    0.1501    0.5378    0.0000 C   0  0  0  0  0  0  0  0  0  0  0  0
    1.6438    0.3992    0.0000 C   0  0  0  0  0  0  0  0  0  0  0  0
    1.0891    1.7929    0.0000 C   0  0  0  0  0  0  0  0  0  0  0  0
    3.0767    0.8427    0.0000 S   0  0  0  0  0  0  0  0  0  0  0  0
    3.9413   -0.3831    0.0000 C   0  0  0  0  0  0  0  0  0  0  0  0
    5.1422   -1.2817    0.0000 C   0  0  0  0  0  0  0  0  0  0  0  0
    6.6269   -1.0679    0.0000 N   0  0  0  0  0  0  0  0  0  0  0  0
    7.6727   -2.1433    0.0000 C   0  0  0  0  0  0  0  0  0  0  0  0
    7.4172   -3.6214    0.0000 O   0  0  0  0  0  0  0  0  0  0  0  0
    9.0187   -1.4811    0.0000 C   0  0  0  0  0  0  0  0  0  0  0  0
    8.8047    0.0036    0.0000 N   0  0  0  0  0  0  0  0  0  0  0  0
    7.3266    0.2590    0.0000 C   0  0  0  0  0  0  0  0  0  0  0  0
    7.4654    1.7526    0.0000 C   0  0  0  0  0  0  0  0  0  0  0  0
    6.0589    1.0606    0.0000 C   0  0  0  0  0  0  0  0  0  0  0  0
   10.3455   -2.1807    0.0000 C   0  0  0  0  0  0  0  0  0  0  0  0
   11.6148   -1.3815    0.0000 C   0  0  0  0  0  0  0  0  0  0  0  0
   12.9416   -2.0812    0.0000 C   0  0  0  0  0  0  0  0  0  0  0  0
   12.9991   -3.5801    0.0000 C   0  0  0  0  0  0  0  0  0  0  0  0
   11.7296   -4.3793    0.0000 C   0  0  0  0  0  0  0  0  0  0  0  0
   10.4028   -3.6796    0.0000 C   0  0  0  0  0  0  0  0  0  0  0  0
    4.2437   -2.4828    0.0000 C   0  0  0  0  0  0  0  0  0  0  0  0
    4.4576   -3.9674    0.0000 O   0  0  0  0  0  0  0  0  0  0  0  0
    3.0426   -1.5842    0.0000 N   0  0  0  0  0  0  0  0  0  0  0  0
    1.6227   -1.1007    0.0000 C   0  0  0  0  0  0  0  0  0  0  0  0
    0.3968   -1.9653    0.0000 C   0  0  0  0  0  0  0  0  0  0  0  0
   -0.9647   -1.3360    0.0000 O   0  0  0  0  0  0  0  0  0  0  0  0
    0.5328   -3.4591    0.0000 O   0  0  0  0  0  0  0  0  0  0  0  0
  1  2  1  0  0  0  0
  2  3  1  0  0  0  0
  4  2  1  0  0  0  0
  2 24  1  0  0  0  0
  5  4  1  0  0  0  0
  6  5  1  0  0  0  0
  5 23  1  0  0  0  0
  6  7  1  0  0  0  0
 21  6  1  0  0  0  0
  8  7  1  0  0  0  0
  7 12  1  0  0  0  0
  8  9  2  0  0  0  0
 10  8  1  0  0  0  0
 11 10  1  0  0  0  0
 10 15  1  0  0  0  0
 12 11  1  0  0  0  0
 12 13  1  0  0  0  0
 12 14  1  0  0  0  0
 16 15  2  0  0  0  0
 15 20  1  0  0  0  0
 17 16  1  0  0  0  0
 18 17  2  0  0  0  0
 19 18  1  0  0  0  0
 20 19  2  0  0  0  0
 21 22  2  0  0  0  0
 23 21  1  0  0  0  0
 24 23  1  0  0  0  0
 24 25  1  0  0  0  0
 25 26  2  0  0  0  0
 25 27  1  0  0  0  0
M  END
> <Inchi_key>
DXVUYOAEDJXBPY-UHFFFAOYSA-N

> <Source>
Mulliner

> <ID>
HT1027

> <H_MFHB>
0

> <CAS>


> <Cholestasis>


> <Name>
hetacillin

> <Class>
0

$$$$