
  -INDIGO-08031710012D

 15 15  0  0  0  0  0  0  0  0999 V2000
    4.1222    4.3954    0.0000 C   0  0  0  0  0  0  0  0  0  0  0  0
    2.8232    3.6454    0.0000 C   0  0  0  0  0  0  0  0  0  0  0  0
    2.8232    2.1454    0.0000 N   0  0  0  0  0  0  0  0  0  0  0  0
    4.1222    1.3954    0.0000 C   0  0  0  0  0  0  0  0  0  0  0  0
    4.1222   -0.1046    0.0000 O   0  0  0  0  0  0  0  0  0  0  0  0
    5.4214    2.1454    0.0000 C   0  0  0  0  0  0  0  0  0  0  0  0
    6.7202    1.3954    0.0000 C   0  0  0  0  0  0  0  0  0  0  0  0
    8.0194    2.1454    0.0000 C   0  0  0  0  0  0  0  0  0  0  0  0
    1.5241    1.3954    0.0000 C   0  0  0  0  0  0  0  0  0  0  0  0
    1.5241   -0.1046    0.0000 C   0  0  0  0  0  0  0  0  0  0  0  0
    0.2251   -0.8546    0.0000 C   0  0  0  0  0  0  0  0  0  0  0  0
   -1.0739   -0.1046    0.0000 C   0  0  0  0  0  0  0  0  0  0  0  0
   -1.0739    1.3954    0.0000 C   0  0  0  0  0  0  0  0  0  0  0  0
    0.2251    2.1454    0.0000 C   0  0  0  0  0  0  0  0  0  0  0  0
    0.2251    3.6454    0.0000 C   0  0  0  0  0  0  0  0  0  0  0  0
  1  2  1  0  0  0  0
  2  3  1  0  0  0  0
  3  4  1  0  0  0  0
  3  9  1  0  0  0  0
  4  5  2  0  0  0  0
  4  6  1  0  0  0  0
  6  7  2  0  0  0  0
  7  8  1  0  0  0  0
 10  9  2  0  0  0  0
  9 14  1  0  0  0  0
 11 10  1  0  0  0  0
 12 11  2  0  0  0  0
 13 12  1  0  0  0  0
 14 13  2  0  0  0  0
 14 15  1  0  0  0  0
M  END
> <Inchi_key>
DNTGGZPQPQTDQF-XBXARRHUSA-N

> <Source>
Mulliner

> <ID>
HT0558

> <H_MFHB>
0

> <CAS>


> <Cholestasis>


> <Name>
crotamiton

> <Class>
0

$$$$