

  -INDIGO-08031710012D

 35 39  0  0  0  0  0  0  0  0999 V2000
   -5.7627   -3.2725    0.0000 C   0  0  0  0  0  0  0  0  0  0  0  0
   -6.5311   -4.5607    0.0000 C   0  0  0  0  0  0  0  0  0  0  0  0
   -7.2851   -3.2640    0.0000 C   0  0  0  0  0  0  0  0  0  0  0  0
   -8.7852   -3.2688    0.0000 C   0  0  0  0  0  0  0  0  0  0  0  0
   -9.5310   -4.5703    0.0000 C   0  0  0  0  0  0  0  0  0  0  0  0
  -11.0311   -4.5750    0.0000 O   0  0  0  0  0  0  0  0  0  0  0  0
   -8.7769   -5.8669    0.0000 C   0  0  0  0  0  0  0  0  0  0  0  0
   -7.2768   -5.8621    0.0000 C   0  0  0  0  0  0  0  0  0  0  0  0
   -6.5227   -7.1587    0.0000 C   0  0  0  0  0  0  0  0  0  0  0  0
   -5.0230   -7.1540    0.0000 C   0  0  0  0  0  0  0  0  0  0  0  0
   -4.2769   -5.8525    0.0000 C   0  0  0  0  0  0  0  0  0  0  0  0
   -2.7771   -5.8478    0.0000 C   0  0  0  0  0  0  0  0  0  0  0  0
   -1.7698   -6.9593    0.0000 C   0  0  0  0  0  0  0  0  0  0  0  0
   -0.4015   -6.3448    0.0000 C   0  0  0  0  0  0  0  0  0  0  0  0
   -0.5629   -4.8535    0.0000 C   0  0  0  0  0  0  0  0  0  0  0  0
   -0.1792   -3.4034    0.0000 O   0  0  0  0  0  0  0  0  0  0  0  0
    0.8977   -4.5114    0.0000 C   0  0  0  0  0  0  0  0  0  0  0  0
    1.3316   -3.0756    0.0000 O   0  0  0  0  0  0  0  0  0  0  0  0
    1.9243   -5.6052    0.0000 C   0  0  0  0  0  0  0  0  0  0  0  0
    3.3844   -5.2631    0.0000 O   0  0  0  0  0  0  0  0  0  0  0  0
    4.4110   -6.3569    0.0000 C   0  0  0  0  0  0  0  0  0  0  0  0
    3.9771   -7.7927    0.0000 O   0  0  0  0  0  0  0  0  0  0  0  0
    5.8716   -6.0148    0.0000 C   0  0  0  0  0  0  0  0  0  0  0  0
    6.8981   -7.1086    0.0000 C   0  0  0  0  0  0  0  0  0  0  0  0
    8.3583   -6.7665    0.0000 C   0  0  0  0  0  0  0  0  0  0  0  0
    9.4937   -7.7469    0.0000 C   0  0  0  0  0  0  0  0  0  0  0  0
   10.7769   -6.9703    0.0000 C   0  0  0  0  0  0  0  0  0  0  0  0
   10.4348   -5.5098    0.0000 C   0  0  0  0  0  0  0  0  0  0  0  0
    8.9403   -5.3839    0.0000 C   0  0  0  0  0  0  0  0  0  0  0  0
   -2.0310   -4.5463    0.0000 C   0  0  0  0  0  0  0  0  0  0  0  0
   -1.1532   -3.3300    0.0000 C   0  0  0  0  0  0  0  0  0  0  0  0
   -2.7851   -3.2497    0.0000 C   0  0  0  0  0  0  0  0  0  0  0  0
   -4.2852   -3.2545    0.0000 C   0  0  0  0  0  0  0  0  0  0  0  0
   -5.0393   -1.9578    0.0000 O   0  0  0  0  0  0  0  0  0  0  0  0
   -5.0309   -4.5559    0.0000 C   0  0  0  0  0  0  0  0  0  0  0  0
  1  2  1  0  0  0  0
  3  2  1  0  0  0  0
  8  2  1  0  0  0  0
  2 35  1  0  0  0  0
  4  3  1  0  0  0  0
  5  4  1  0  0  0  0
  5  6  2  0  0  0  0
  7  5  1  0  0  0  0
  8  7  2  0  0  0  0
  9  8  1  0  0  0  0
 10  9  1  0  0  0  0
 11 10  1  0  0  0  0
 12 11  1  0  0  0  0
 11 35  1  0  0  0  0
 13 12  1  0  0  0  0
 12 30  1  0  0  0  0
 14 13  1  0  0  0  0
 15 14  1  0  0  0  0
 15 16  1  0  0  0  0
 15 17  1  0  0  0  0
 30 15  1  0  0  0  0
 17 18  2  0  0  0  0
 17 19  1  0  0  0  0
 19 20  1  0  0  0  0
 20 21  1  0  0  0  0
 21 22  2  0  0  0  0
 21 23  1  0  0  0  0
 23 24  1  0  0  0  0
 24 25  1  0  0  0  0
 26 25  1  0  0  0  0
 25 29  1  0  0  0  0
 27 26  1  0  0  0  0
 28 27  1  0  0  0  0
 29 28  1  0  0  0  0
 30 31  1  0  0  0  0
 32 30  1  0  0  0  0
 33 32  1  0  0  0  0
 33 34  1  0  0  0  0
 35 33  1  0  0  0  0
M  END
> <Inchi_key>
DLVOSEUFIRPIRM-UHFFFAOYSA-N

> <Source>
Mulliner

> <ID>
HT1050

> <H_MFHB>
0

> <CAS>


> <Cholestasis>


> <Name>
hydrocortisone cypionate

> <Class>
0


$$$$