
  -INDIGO-08031710012D

 17 18  0  0  0  0  0  0  0  0999 V2000
    3.0127    3.0127    0.0000 C   0  0  0  0  0  0  0  0  0  0  0  0
    3.0127    1.5127    0.0000 O   0  0  0  0  0  0  0  0  0  0  0  0
    4.3116    0.7627    0.0000 C   0  0  0  0  0  0  0  0  0  0  0  0
    5.6107    1.5127    0.0000 O   0  0  0  0  0  0  0  0  0  0  0  0
    4.3116   -0.7373    0.0000 C   0  0  0  0  0  0  0  0  0  0  0  0
    5.6107   -1.4873    0.0000 C   0  0  0  0  0  0  0  0  0  0  0  0
    5.6107   -2.9873    0.0000 C   0  0  0  0  0  0  0  0  0  0  0  0
    6.9098   -3.7373    0.0000 C   0  0  0  0  0  0  0  0  0  0  0  0
    8.2088   -2.9873    0.0000 C   0  0  0  0  0  0  0  0  0  0  0  0
    8.2088   -1.4873    0.0000 C   0  0  0  0  0  0  0  0  0  0  0  0
    6.9098   -0.7373    0.0000 N   0  0  0  0  0  0  0  0  0  0  0  0
    3.0127   -1.4873    0.0000 C   0  0  0  0  0  0  0  0  0  0  0  0
    1.7136   -0.7373    0.0000 C   0  0  0  0  0  0  0  0  0  0  0  0
    0.4146   -1.4873    0.0000 C   0  0  0  0  0  0  0  0  0  0  0  0
    0.4146   -2.9873    0.0000 C   0  0  0  0  0  0  0  0  0  0  0  0
    1.7136   -3.7373    0.0000 C   0  0  0  0  0  0  0  0  0  0  0  0
    3.0127   -2.9873    0.0000 C   0  0  0  0  0  0  0  0  0  0  0  0
  1  2  1  0  0  0  0
  2  3  1  0  0  0  0
  3  4  2  0  0  0  0
  3  5  1  0  0  0  0
  5  6  1  0  0  0  0
  5 12  1  0  0  0  0
  7  6  1  0  0  0  0
  6 11  1  0  0  0  0
  8  7  1  0  0  0  0
  9  8  1  0  0  0  0
 10  9  1  0  0  0  0
 11 10  1  0  0  0  0
 13 12  2  0  0  0  0
 12 17  1  0  0  0  0
 14 13  1  0  0  0  0
 15 14  2  0  0  0  0
 16 15  1  0  0  0  0
 17 16  2  0  0  0  0
M  END
> <Inchi_key>
DUGOZIWVEXMGBE-UHFFFAOYSA-N

> <Source>
Mulliner

> <ID>
HT0625

> <H_MFHB>
0

> <CAS>
298-59-9;19262-68-1;113-45-1

> <Cholestasis>


> <Name>
dexmethylphenidate hydrochloride;methylphenidate;methylphenidate hydrochloride

> <Class>
0

$$$$