

  -INDIGO-08031710012D

 36 39  0  0  0  0  0  0  0  0999 V2000
   17.0195    2.1413    0.0000 C   0  0  0  0  0  0  0  0  0  0  0  0
   16.1176    3.3398    0.0000 C   0  0  0  0  0  0  0  0  0  0  0  0
   14.6287    3.1581    0.0000 C   0  0  0  0  0  0  0  0  0  0  0  0
   14.0417    1.7776    0.0000 O   0  0  0  0  0  0  0  0  0  0  0  0
   13.7266    4.3565    0.0000 O   0  0  0  0  0  0  0  0  0  0  0  0
   12.2377    4.1747    0.0000 C   0  0  0  0  0  0  0  0  0  0  0  0
   11.3358    5.3732    0.0000 C   0  0  0  0  0  0  0  0  0  0  0  0
   11.9228    6.7536    0.0000 O   0  0  0  0  0  0  0  0  0  0  0  0
    9.8469    5.1915    0.0000 C   0  0  0  0  0  0  0  0  0  0  0  0
   10.3853    6.5915    0.0000 O   0  0  0  0  0  0  0  0  0  0  0  0
    9.4420    7.7577    0.0000 C   0  0  0  0  0  0  0  0  0  0  0  0
    7.9603    7.5240    0.0000 O   0  0  0  0  0  0  0  0  0  0  0  0
    9.9806    9.1577    0.0000 C   0  0  0  0  0  0  0  0  0  0  0  0
    9.0373   10.3240    0.0000 C   0  0  0  0  0  0  0  0  0  0  0  0
    9.9505    3.6949    0.0000 C   0  0  0  0  0  0  0  0  0  0  0  0
   11.2221    2.8992    0.0000 C   0  0  0  0  0  0  0  0  0  0  0  0
    8.5594    3.1340    0.0000 C   0  0  0  0  0  0  0  0  0  0  0  0
    7.5960    4.2837    0.0000 C   0  0  0  0  0  0  0  0  0  0  0  0
    6.0969    4.3370    0.0000 C   0  0  0  0  0  0  0  0  0  0  0  0
    5.3012    3.0653    0.0000 C   0  0  0  0  0  0  0  0  0  0  0  0
    6.0047    1.7405    0.0000 Cl  0  0  0  0  0  0  0  0  0  0  0  0
    3.8021    3.1186    0.0000 C   0  0  0  0  0  0  0  0  0  0  0  0
    3.0987    4.4434    0.0000 C   0  0  0  0  0  0  0  0  0  0  0  0
    1.5996    4.4968    0.0000 C   0  0  0  0  0  0  0  0  0  0  0  0
    0.8964    5.8217    0.0000 C   0  0  0  0  0  0  0  0  0  0  0  0
   -0.6027    5.8750    0.0000 O   0  0  0  0  0  0  0  0  0  0  0  0
    1.6921    7.0932    0.0000 C   0  0  0  0  0  0  0  0  0  0  0  0
    3.1912    7.0399    0.0000 C   0  0  0  0  0  0  0  0  0  0  0  0
    3.8946    5.7151    0.0000 C   0  0  0  0  0  0  0  0  0  0  0  0
    4.6903    6.9866    0.0000 C   0  0  0  0  0  0  0  0  0  0  0  0
    5.3934    5.6618    0.0000 C   0  0  0  0  0  0  0  0  0  0  0  0
    6.1891    6.9333    0.0000 C   0  0  0  0  0  0  0  0  0  0  0  0
    5.4857    8.2582    0.0000 O   0  0  0  0  0  0  0  0  0  0  0  0
    7.6882    6.8800    0.0000 C   0  0  0  0  0  0  0  0  0  0  0  0
    8.3917    5.5552    0.0000 C   0  0  0  0  0  0  0  0  0  0  0  0
    9.2951    6.7526    0.0000 C   0  0  0  0  0  0  0  0  0  0  0  0
  1  2  1  0  0  0  0
  2  3  1  0  0  0  0
  3  4  2  0  0  0  0
  3  5  1  0  0  0  0
  5  6  1  0  0  0  0
  6  7  1  0  0  0  0
  7  8  2  0  0  0  0
  7  9  1  0  0  0  0
  9 10  1  0  0  0  0
 15  9  1  0  0  0  0
  9 35  1  0  0  0  0
 10 11  1  0  0  0  0
 11 12  2  0  0  0  0
 11 13  1  0  0  0  0
 13 14  1  0  0  0  0
 15 16  1  0  0  0  0
 17 15  1  0  0  0  0
 18 17  1  0  0  0  0
 19 18  1  0  0  0  0
 18 35  1  0  0  0  0
 20 19  1  0  0  0  0
 19 31  1  0  0  0  0
 20 21  1  0  0  0  0
 22 20  1  0  0  0  0
 23 22  1  0  0  0  0
 24 23  2  0  0  0  0
 23 29  1  0  0  0  0
 25 24  1  0  0  0  0
 25 26  2  0  0  0  0
 27 25  1  0  0  0  0
 28 27  2  0  0  0  0
 29 28  1  0  0  0  0
 29 30  1  0  0  0  0
 31 29  1  0  0  0  0
 32 31  1  0  0  0  0
 32 33  1  0  0  0  0
 34 32  1  0  0  0  0
 35 34  1  0  0  0  0
 35 36  1  0  0  0  0
M  END
> <Inchi_key>
DJHCCTTVDRAMEH-UHFFFAOYSA-N

> <Source>
Mulliner

> <ID>
HT0091

> <H_MFHB>
0

> <CAS>
66734-13-2

> <Cholestasis>


> <Name>
alclometasone dipropionate

> <Class>
0


$$$$