
  -INDIGO-08031710012D

  8  8  0  0  0  0  0  0  0  0999 V2000
    0.5711    1.5056    0.0000 C   0  0  0  0  0  0  0  0  0  0  0  0
    1.7846    0.6239    0.0000 N   0  0  0  0  0  0  0  0  0  0  0  0
    3.2112    1.0875    0.0000 S   0  0  0  0  0  0  0  0  0  0  0  0
    4.0929   -0.1261    0.0000 C   0  0  0  0  0  0  0  0  0  0  0  0
    3.2112   -1.3396    0.0000 C   0  0  0  0  0  0  0  0  0  0  0  0
    1.7846   -0.8761    0.0000 C   0  0  0  0  0  0  0  0  0  0  0  0
    0.5711   -1.7577    0.0000 O   0  0  0  0  0  0  0  0  0  0  0  0
    5.5929   -0.1261    0.0000 Cl  0  0  0  0  0  0  0  0  0  0  0  0
  1  2  1  0  0  0  0
  3  2  1  0  0  0  0
  2  6  1  0  0  0  0
  4  3  1  0  0  0  0
  5  4  2  0  0  0  0
  4  8  1  0  0  0  0
  6  5  1  0  0  0  0
  6  7  2  0  0  0  0
M  END
> <Inchi_key>
DHNRXBZYEKSXIM-UHFFFAOYSA-N

> <Source>
Mulliner

> <ID>
HT2624

> <H_MFHB>
0

> <CAS>


> <Cholestasis>


> <Name>


> <Class>
0

$$$$