
  -INDIGO-08031710012D

 15 16  0  0  0  0  0  0  0  0999 V2000
    3.1202    3.1202    0.0000 C   0  0  0  0  0  0  0  0  0  0  0  0
    3.1202    1.6202    0.0000 C   0  0  0  0  0  0  0  0  0  0  0  0
    4.4191    0.8702    0.0000 C   0  0  0  0  0  0  0  0  0  0  0  0
    4.5760   -0.6216    0.0000 C   0  0  0  0  0  0  0  0  0  0  0  0
    6.0432   -0.9335    0.0000 N   0  0  0  0  0  0  0  0  0  0  0  0
    6.7932    0.3655    0.0000 C   0  0  0  0  0  0  0  0  0  0  0  0
    5.7896    1.4803    0.0000 N   0  0  0  0  0  0  0  0  0  0  0  0
    1.8211    0.8702    0.0000 C   0  0  0  0  0  0  0  0  0  0  0  0
    1.8211   -0.6298    0.0000 C   0  0  0  0  0  0  0  0  0  0  0  0
    0.5222   -1.3798    0.0000 C   0  0  0  0  0  0  0  0  0  0  0  0
   -0.7771   -0.6298    0.0000 C   0  0  0  0  0  0  0  0  0  0  0  0
   -0.7771    0.8702    0.0000 C   0  0  0  0  0  0  0  0  0  0  0  0
   -2.0760    1.6202    0.0000 C   0  0  0  0  0  0  0  0  0  0  0  0
    0.5222    1.6202    0.0000 C   0  0  0  0  0  0  0  0  0  0  0  0
    0.5222    3.1202    0.0000 C   0  0  0  0  0  0  0  0  0  0  0  0
  1  2  1  0  0  0  0
  2  3  1  0  0  0  0
  2  8  1  0  0  0  0
  4  3  2  0  0  0  0
  3  7  1  0  0  0  0
  5  4  1  0  0  0  0
  6  5  1  0  0  0  0
  7  6  2  0  0  0  0
  9  8  2  0  0  0  0
  8 14  1  0  0  0  0
 10  9  1  0  0  0  0
 11 10  2  0  0  0  0
 12 11  1  0  0  0  0
 12 13  1  0  0  0  0
 14 12  2  0  0  0  0
 14 15  1  0  0  0  0
M  END
> <Inchi_key>
CUHVIMMYOGQXCV-UHFFFAOYSA-N

> <Source>
Mulliner , Kotsampasakou

> <ID>
EK0315;HT0624

> <H_MFHB>
0

> <CAS>


> <Cholestasis>
0

> <Name>
dexmedetomidine hydrochloride;medetomidine

> <Class>
0

$$$$