
  -INDIGO-08031710012D

 30 33  0  0  0  0  0  0  0  0999 V2000
   21.4168    5.7386    0.0000 C   0  0  0  0  0  0  0  0  0  0  0  0
   20.1178    4.9886    0.0000 C   0  0  0  0  0  0  0  0  0  0  0  0
   20.1178    3.4887    0.0000 O   0  0  0  0  0  0  0  0  0  0  0  0
   18.8188    5.7386    0.0000 O   0  0  0  0  0  0  0  0  0  0  0  0
   17.5198    4.9886    0.0000 C   0  0  0  0  0  0  0  0  0  0  0  0
   16.2207    5.7386    0.0000 C   0  0  0  0  0  0  0  0  0  0  0  0
   14.9217    4.9886    0.0000 N   0  0  0  0  0  0  0  0  0  0  0  0
   14.9217    3.4887    0.0000 C   0  0  0  0  0  0  0  0  0  0  0  0
   13.6227    2.7386    0.0000 C   0  0  0  0  0  0  0  0  0  0  0  0
   12.3237    3.4887    0.0000 N   0  0  0  0  0  0  0  0  0  0  0  0
   11.0244    2.7386    0.0000 C   0  0  0  0  0  0  0  0  0  0  0  0
    9.7254    3.4887    0.0000 C   0  0  0  0  0  0  0  0  0  0  0  0
    8.4264    2.7386    0.0000 C   0  0  0  0  0  0  0  0  0  0  0  0
    7.1273    3.4887    0.0000 N   0  0  0  0  0  0  0  0  0  0  0  0
    7.1273    4.9886    0.0000 C   0  0  0  0  0  0  0  0  0  0  0  0
    8.4264    5.7386    0.0000 C   0  0  0  0  0  0  0  0  0  0  0  0
    8.4264    7.2386    0.0000 C   0  0  0  0  0  0  0  0  0  0  0  0
    7.1273    7.9886    0.0000 C   0  0  0  0  0  0  0  0  0  0  0  0
    5.8283    7.2386    0.0000 C   0  0  0  0  0  0  0  0  0  0  0  0
    5.8283    5.7386    0.0000 C   0  0  0  0  0  0  0  0  0  0  0  0
    4.5293    4.9886    0.0000 S   0  0  0  0  0  0  0  0  0  0  0  0
    4.5293    3.4887    0.0000 C   0  0  0  0  0  0  0  0  0  0  0  0
    3.2303    2.7386    0.0000 C   0  0  0  0  0  0  0  0  0  0  0  0
    3.2303    1.2386    0.0000 C   0  0  0  0  0  0  0  0  0  0  0  0
    4.5293    0.4887    0.0000 C   0  0  0  0  0  0  0  0  0  0  0  0
    4.5293   -1.0114    0.0000 Cl  0  0  0  0  0  0  0  0  0  0  0  0
    5.8283    1.2386    0.0000 C   0  0  0  0  0  0  0  0  0  0  0  0
    5.8283    2.7386    0.0000 C   0  0  0  0  0  0  0  0  0  0  0  0
   12.3237    4.9886    0.0000 C   0  0  0  0  0  0  0  0  0  0  0  0
   13.6227    5.7386    0.0000 C   0  0  0  0  0  0  0  0  0  0  0  0
  1  2  1  0  0  0  0
  2  3  2  0  0  0  0
  2  4  1  0  0  0  0
  4  5  1  0  0  0  0
  5  6  1  0  0  0  0
  6  7  1  0  0  0  0
  8  7  1  0  0  0  0
  7 30  1  0  0  0  0
  9  8  1  0  0  0  0
 10  9  1  0  0  0  0
 10 11  1  0  0  0  0
 29 10  1  0  0  0  0
 11 12  1  0  0  0  0
 12 13  1  0  0  0  0
 13 14  1  0  0  0  0
 15 14  1  0  0  0  0
 14 28  1  0  0  0  0
 16 15  2  0  0  0  0
 15 20  1  0  0  0  0
 17 16  1  0  0  0  0
 18 17  2  0  0  0  0
 19 18  1  0  0  0  0
 20 19  2  0  0  0  0
 21 20  1  0  0  0  0
 22 21  1  0  0  0  0
 23 22  2  0  0  0  0
 22 28  1  0  0  0  0
 24 23  1  0  0  0  0
 25 24  2  0  0  0  0
 25 26  1  0  0  0  0
 27 25  1  0  0  0  0
 28 27  2  0  0  0  0
 30 29  1  0  0  0  0
M  END
> <Inchi_key>
AIUHRQHVWSUTGJ-UHFFFAOYSA-N

> <Source>
Mulliner

> <ID>
HT2265

> <H_MFHB>
0

> <CAS>


> <Cholestasis>


> <Name>


> <Class>
0

$$$$