
  -INDIGO-08031710012D

 24 26  0  0  0  0  0  0  0  0999 V2000
   14.6250   -0.0000    0.0000 C   0  0  0  0  0  0  0  0  0  0  0  0
   13.1249   -0.0000    0.0000 C   0  0  0  0  0  0  0  0  0  0  0  0
   12.3751   -1.2991    0.0000 N   0  0  0  0  0  0  0  0  0  0  0  0
   13.1249   -2.5981    0.0000 C   0  0  0  0  0  0  0  0  0  0  0  0
   12.3751   -3.8971    0.0000 C   0  0  0  0  0  0  0  0  0  0  0  0
   10.8750   -1.2991    0.0000 C   0  0  0  0  0  0  0  0  0  0  0  0
   10.1250   -0.0000    0.0000 C   0  0  0  0  0  0  0  0  0  0  0  0
    8.6249   -0.0000    0.0000 N   0  0  0  0  0  0  0  0  0  0  0  0
    7.8751    1.2990    0.0000 C   0  0  0  0  0  0  0  0  0  0  0  0
    8.6249    2.5982    0.0000 C   0  0  0  0  0  0  0  0  0  0  0  0
    7.8751    3.8970    0.0000 C   0  0  0  0  0  0  0  0  0  0  0  0
    6.3750    3.8970    0.0000 C   0  0  0  0  0  0  0  0  0  0  0  0
    5.6250    5.1962    0.0000 C   0  0  0  0  0  0  0  0  0  0  0  0
    5.6250    2.5982    0.0000 C   0  0  0  0  0  0  0  0  0  0  0  0
    4.1249    2.5982    0.0000 S   0  0  0  0  0  0  0  0  0  0  0  0
    3.3751    1.2990    0.0000 C   0  0  0  0  0  0  0  0  0  0  0  0
    1.8750    1.2990    0.0000 C   0  0  0  0  0  0  0  0  0  0  0  0
    1.1250   -0.0000    0.0000 C   0  0  0  0  0  0  0  0  0  0  0  0
    1.8750   -1.2991    0.0000 C   0  0  0  0  0  0  0  0  0  0  0  0
    3.3751   -1.2991    0.0000 C   0  0  0  0  0  0  0  0  0  0  0  0
    4.1249   -0.0000    0.0000 C   0  0  0  0  0  0  0  0  0  0  0  0
    5.6250   -0.0000    0.0000 C   0  0  0  0  0  0  0  0  0  0  0  0
    6.3750   -1.2991    0.0000 O   0  0  0  0  0  0  0  0  0  0  0  0
    6.3750    1.2990    0.0000 C   0  0  0  0  0  0  0  0  0  0  0  0
  1  2  1  0  0  0  0
  2  3  1  0  0  0  0
  3  4  1  0  0  0  0
  3  6  1  0  0  0  0
  4  5  1  0  0  0  0
  6  7  1  0  0  0  0
  7  8  1  0  0  0  0
  8  9  1  0  0  0  0
 10  9  2  0  0  0  0
  9 24  1  0  0  0  0
 11 10  1  0  0  0  0
 12 11  2  0  0  0  0
 12 13  1  0  0  0  0
 14 12  1  0  0  0  0
 15 14  1  0  0  0  0
 14 24  2  0  0  0  0
 16 15  1  0  0  0  0
 17 16  1  0  0  0  0
 16 21  2  0  0  0  0
 18 17  2  0  0  0  0
 19 18  1  0  0  0  0
 20 19  2  0  0  0  0
 21 20  1  0  0  0  0
 22 21  1  0  0  0  0
 22 23  2  0  0  0  0
 24 22  1  0  0  0  0
M  END
> <Inchi_key>
FBQPGGIHOFZRGH-UHFFFAOYSA-N

> <Source>
Mulliner

> <ID>
HT1255

> <H_MFHB>
0

> <CAS>


> <Cholestasis>


> <Name>
lucanthone

> <Class>
0

$$$$