

  -INDIGO-08031710012D

  9  8  0  0  0  0  0  0  0  0999 V2000
    6.5474   -1.4210    0.0000 C   0  0  0  0  0  0  0  0  0  0  0  0
    5.2484   -2.1710    0.0000 C   0  0  0  0  0  0  0  0  0  0  0  0
    3.9494   -1.4210    0.0000 C   0  0  0  0  0  0  0  0  0  0  0  0
    3.9494    0.0790    0.0000 C   0  0  0  0  0  0  0  0  0  0  0  0
    2.6503   -2.1710    0.0000 C   0  0  0  0  0  0  0  0  0  0  0  0
    2.6503   -3.6710    0.0000 N   0  0  0  0  0  0  0  0  0  0  0  0
    1.3513   -1.4210    0.0000 C   0  0  0  0  0  0  0  0  0  0  0  0
    0.0522   -2.1710    0.0000 O   0  0  0  0  0  0  0  0  0  0  0  0
    1.3513    0.0790    0.0000 O   0  0  0  0  0  0  0  0  0  0  0  0
  1  2  1  0  0  0  0
  2  3  1  0  0  0  0
  3  4  1  0  0  0  0
  3  5  1  0  0  0  0
  5  6  1  0  0  0  0
  5  7  1  0  0  0  0
  7  8  2  0  0  0  0
  7  9  1  0  0  0  0
M  END
> <Inchi_key>
AGPKZVBTJJNPAG-UHFFFAOYSA-N

> <Source>
Mulliner

> <ID>
HT1219

> <H_MFHB>
0

> <CAS>


> <Cholestasis>


> <Name>
l-isoleucine

> <Class>
0


$$$$