

  -INDIGO-08031710012D

 27 30  0  0  0  0  0  0  0  0999 V2000
    1.6917    2.9192    0.0000 C   0  0  0  0  0  0  0  0  0  0  0  0
    2.4376    1.6177    0.0000 C   0  0  0  0  0  0  0  0  0  0  0  0
    3.9375    1.6128    0.0000 C   0  0  0  0  0  0  0  0  0  0  0  0
    4.6834    0.3114    0.0000 C   0  0  0  0  0  0  0  0  0  0  0  0
    6.1833    0.3065    0.0000 C   0  0  0  0  0  0  0  0  0  0  0  0
    7.1907    1.4179    0.0000 C   0  0  0  0  0  0  0  0  0  0  0  0
    8.5590    0.8033    0.0000 C   0  0  0  0  0  0  0  0  0  0  0  0
    8.3972   -0.6879    0.0000 C   0  0  0  0  0  0  0  0  0  0  0  0
    8.8809   -2.1078    0.0000 O   0  0  0  0  0  0  0  0  0  0  0  0
    9.8781   -0.9274    0.0000 C   0  0  0  0  0  0  0  0  0  0  0  0
   10.8258    0.2352    0.0000 O   0  0  0  0  0  0  0  0  0  0  0  0
   10.4110   -2.3295    0.0000 C   0  0  0  0  0  0  0  0  0  0  0  0
    6.9289   -0.9950    0.0000 C   0  0  0  0  0  0  0  0  0  0  0  0
    7.7854   -2.2265    0.0000 C   0  0  0  0  0  0  0  0  0  0  0  0
    6.1748   -2.2916    0.0000 C   0  0  0  0  0  0  0  0  0  0  0  0
    4.6747   -2.2867    0.0000 C   0  0  0  0  0  0  0  0  0  0  0  0
    3.9206   -3.5833    0.0000 O   0  0  0  0  0  0  0  0  0  0  0  0
    3.9291   -0.9852    0.0000 C   0  0  0  0  0  0  0  0  0  0  0  0
    3.1748   -2.2818    0.0000 F   0  0  0  0  0  0  0  0  0  0  0  0
    2.4289   -0.9803    0.0000 C   0  0  0  0  0  0  0  0  0  0  0  0
    0.9292   -0.9754    0.0000 C   0  0  0  0  0  0  0  0  0  0  0  0
    1.6748   -2.2769    0.0000 C   0  0  0  0  0  0  0  0  0  0  0  0
    0.1749   -2.2720    0.0000 C   0  0  0  0  0  0  0  0  0  0  0  0
   -0.5710   -0.9705    0.0000 C   0  0  0  0  0  0  0  0  0  0  0  0
   -2.0709   -0.9656    0.0000 O   0  0  0  0  0  0  0  0  0  0  0  0
    0.1833    0.3260    0.0000 C   0  0  0  0  0  0  0  0  0  0  0  0
    1.6833    0.3212    0.0000 C   0  0  0  0  0  0  0  0  0  0  0  0
  1  2  1  0  0  0  0
  3  2  1  0  0  0  0
  2 27  1  0  0  0  0
  4  3  1  0  0  0  0
  5  4  1  0  0  0  0
  4 18  1  0  0  0  0
  6  5  1  0  0  0  0
  5 13  1  0  0  0  0
  7  6  1  0  0  0  0
  8  7  1  0  0  0  0
  8  9  1  0  0  0  0
  8 10  1  0  0  0  0
 13  8  1  0  0  0  0
 10 11  2  0  0  0  0
 10 12  1  0  0  0  0
 13 14  1  0  0  0  0
 15 13  1  0  0  0  0
 16 15  1  0  0  0  0
 16 17  1  0  0  0  0
 18 16  1  0  0  0  0
 18 19  1  0  0  0  0
 20 18  1  0  0  0  0
 20 21  1  0  0  0  0
 22 20  1  0  0  0  0
 20 27  1  0  0  0  0
 23 22  2  0  0  0  0
 24 23  1  0  0  0  0
 24 25  2  0  0  0  0
 26 24  1  0  0  0  0
 27 26  2  0  0  0  0
M  END
> <Inchi_key>
FAOZLTXFLGPHNG-UHFFFAOYSA-N

> <Source>
Mulliner , Kotsampasakou

> <ID>
EK0225;HT0908

> <H_MFHB>
0

> <CAS>


> <Cholestasis>
0

> <Name>
fluorometholone

> <Class>
0


$$$$