

  -INDIGO-08031710012D

 28 31  0  0  0  0  0  0  0  0999 V2000
    0.6962   -0.6960    0.0000 O   0  0  0  0  0  0  0  0  0  0  0  0
    0.6962    0.8040    0.0000 C   0  0  0  0  0  0  0  0  0  0  0  0
    1.9952    1.5539    0.0000 O   0  0  0  0  0  0  0  0  0  0  0  0
    3.2942    0.8040    0.0000 C   0  0  0  0  0  0  0  0  0  0  0  0
    4.5932    1.5539    0.0000 C   0  0  0  0  0  0  0  0  0  0  0  0
    5.8921    0.8040    0.0000 O   0  0  0  0  0  0  0  0  0  0  0  0
    7.1911    1.5539    0.0000 C   0  0  0  0  0  0  0  0  0  0  0  0
    8.4904    0.8040    0.0000 C   0  0  0  0  0  0  0  0  0  0  0  0
    9.7894    1.5539    0.0000 N   0  0  0  0  0  0  0  0  0  0  0  0
    9.7894    3.0539    0.0000 C   0  0  0  0  0  0  0  0  0  0  0  0
   11.0884    3.8040    0.0000 C   0  0  0  0  0  0  0  0  0  0  0  0
   12.3874    3.0539    0.0000 C   0  0  0  0  0  0  0  0  0  0  0  0
   12.3874    1.5539    0.0000 C   0  0  0  0  0  0  0  0  0  0  0  0
   11.0884    0.8040    0.0000 C   0  0  0  0  0  0  0  0  0  0  0  0
   -0.6031    1.5539    0.0000 N   0  0  0  0  0  0  0  0  0  0  0  0
   -0.6031    3.0539    0.0000 C   0  0  0  0  0  0  0  0  0  0  0  0
    0.6962    3.8040    0.0000 C   0  0  0  0  0  0  0  0  0  0  0  0
    0.6962    5.3040    0.0000 C   0  0  0  0  0  0  0  0  0  0  0  0
   -0.6031    6.0539    0.0000 C   0  0  0  0  0  0  0  0  0  0  0  0
   -1.9021    5.3040    0.0000 C   0  0  0  0  0  0  0  0  0  0  0  0
   -1.9021    3.8040    0.0000 C   0  0  0  0  0  0  0  0  0  0  0  0
   -3.2011    3.0539    0.0000 S   0  0  0  0  0  0  0  0  0  0  0  0
   -3.2011    1.5539    0.0000 C   0  0  0  0  0  0  0  0  0  0  0  0
   -4.5001    0.8040    0.0000 C   0  0  0  0  0  0  0  0  0  0  0  0
   -4.5001   -0.6960    0.0000 C   0  0  0  0  0  0  0  0  0  0  0  0
   -3.2011   -1.4461    0.0000 C   0  0  0  0  0  0  0  0  0  0  0  0
   -1.9021   -0.6960    0.0000 N   0  0  0  0  0  0  0  0  0  0  0  0
   -1.9021    0.8040    0.0000 C   0  0  0  0  0  0  0  0  0  0  0  0
  1  2  2  0  0  0  0
  2  3  1  0  0  0  0
  2 15  1  0  0  0  0
  3  4  1  0  0  0  0
  4  5  1  0  0  0  0
  5  6  1  0  0  0  0
  6  7  1  0  0  0  0
  7  8  1  0  0  0  0
  8  9  1  0  0  0  0
 10  9  1  0  0  0  0
  9 14  1  0  0  0  0
 11 10  1  0  0  0  0
 12 11  1  0  0  0  0
 13 12  1  0  0  0  0
 14 13  1  0  0  0  0
 16 15  1  0  0  0  0
 15 28  1  0  0  0  0
 17 16  2  0  0  0  0
 16 21  1  0  0  0  0
 18 17  1  0  0  0  0
 19 18  2  0  0  0  0
 20 19  1  0  0  0  0
 21 20  2  0  0  0  0
 22 21  1  0  0  0  0
 23 22  1  0  0  0  0
 24 23  2  0  0  0  0
 23 28  1  0  0  0  0
 25 24  1  0  0  0  0
 26 25  2  0  0  0  0
 27 26  1  0  0  0  0
 28 27  2  0  0  0  0
M  END
> <Inchi_key>
DTVJXCOMJLLMAK-UHFFFAOYSA-N

> <Source>
Mulliner

> <ID>
HT1679

> <H_MFHB>
0

> <CAS>


> <Cholestasis>


> <Name>
pipazethate

> <Class>
0


$$$$