

  -INDIGO-08031710012D

 19 19  0  0  0  0  0  0  0  0999 V2000
   -0.3947   -0.6837    0.0000 C   0  0  0  0  0  0  0  0  0  0  0  0
    0.3553   -1.9827    0.0000 C   0  0  0  0  0  0  0  0  0  0  0  0
    1.8553   -1.9827    0.0000 C   0  0  0  0  0  0  0  0  0  0  0  0
    2.6053   -3.2818    0.0000 N   0  0  0  0  0  0  0  0  0  0  0  0
    1.8553   -4.5808    0.0000 C   0  0  0  0  0  0  0  0  0  0  0  0
    0.3553   -4.5808    0.0000 C   0  0  0  0  0  0  0  0  0  0  0  0
   -0.3947   -5.8799    0.0000 C   0  0  0  0  0  0  0  0  0  0  0  0
    4.1053   -3.2818    0.0000 S   0  0  0  0  0  0  0  0  0  0  0  0
    4.1053   -1.7818    0.0000 O   0  0  0  0  0  0  0  0  0  0  0  0
    4.1053   -4.7818    0.0000 O   0  0  0  0  0  0  0  0  0  0  0  0
    5.6053   -3.2818    0.0000 C   0  0  0  0  0  0  0  0  0  0  0  0
    6.3553   -4.5808    0.0000 C   0  0  0  0  0  0  0  0  0  0  0  0
    7.8553   -4.5808    0.0000 C   0  0  0  0  0  0  0  0  0  0  0  0
    8.6053   -3.2818    0.0000 C   0  0  0  0  0  0  0  0  0  0  0  0
    7.8553   -1.9827    0.0000 C   0  0  0  0  0  0  0  0  0  0  0  0
    6.3553   -1.9827    0.0000 C   0  0  0  0  0  0  0  0  0  0  0  0
   10.1053   -3.2818    0.0000 C   0  0  0  0  0  0  0  0  0  0  0  0
   10.8553   -4.5808    0.0000 O   0  0  0  0  0  0  0  0  0  0  0  0
   10.8553   -1.9827    0.0000 O   0  0  0  0  0  0  0  0  0  0  0  0
  1  2  1  0  0  0  0
  2  3  1  0  0  0  0
  3  4  1  0  0  0  0
  4  5  1  0  0  0  0
  4  8  1  0  0  0  0
  5  6  1  0  0  0  0
  6  7  1  0  0  0  0
  8  9  2  0  0  0  0
  8 10  2  0  0  0  0
  8 11  1  0  0  0  0
 12 11  2  0  0  0  0
 11 16  1  0  0  0  0
 13 12  1  0  0  0  0
 14 13  2  0  0  0  0
 15 14  1  0  0  0  0
 14 17  1  0  0  0  0
 16 15  2  0  0  0  0
 17 18  2  0  0  0  0
 17 19  1  0  0  0  0
M  END
> <Inchi_key>
DBABZHXKTCFAPX-UHFFFAOYSA-N

> <Source>
Mulliner , Kotsampasakou

> <ID>
EK0441;HT1741

> <H_MFHB>
0

> <CAS>
57-66-9

> <Cholestasis>
0

> <Name>
probenecid

> <Class>
0


$$$$