
  -INDIGO-08031709442D

 57 60  0  0  0  0  0  0  0  0999 V2000
    2.5650   10.1466    0.0000 S   0  0  0  0  0  0  0  0  0  0  0  0
    4.0655   10.3024    0.0000 S   0  0  0  0  0  0  0  0  0  0  0  0
    4.9564    9.1170    0.0000 C   0  0  0  0  0  0  0  0  0  0  0  0
    4.4123    7.7269    0.0000 C   0  0  0  0  0  0  0  0  0  0  0  0
    5.3536    6.5490    0.0000 C   0  0  0  0  0  0  0  0  0  0  0  0
    6.8368    6.7715    0.0000 O   0  0  0  0  0  0  0  0  0  0  0  0
    4.8043    5.1602    0.0000 N   0  0  0  0  0  0  0  0  0  0  0  0
    5.7351    3.9747    0.0000 C   0  0  0  0  0  0  0  0  0  0  0  0
    7.2250    4.1465    0.0000 C   0  0  0  0  0  0  0  0  0  0  0  0
    8.1189    2.9420    0.0000 C   0  0  0  0  0  0  0  0  0  0  0  0
    9.6089    3.1137    0.0000 C   0  0  0  0  0  0  0  0  0  0  0  0
   10.5028    1.9091    0.0000 C   0  0  0  0  0  0  0  0  0  0  0  0
   11.9931    2.0810    0.0000 N   0  0  0  0  0  0  0  0  0  0  0  0
   12.8870    0.8764    0.0000 C   0  0  0  0  0  0  0  0  0  0  0  0
   12.2906   -0.5000    0.0000 N   0  0  0  0  0  0  0  0  0  0  0  0
   14.3770    1.0481    0.0000 N   0  0  0  0  0  0  0  0  0  0  0  0
    5.0874    2.5848    0.0000 C   0  0  0  0  0  0  0  0  0  0  0  0
    5.9203    1.3374    0.0000 O   0  0  0  0  0  0  0  0  0  0  0  0
    3.5903    2.5212    0.0000 N   0  0  0  0  0  0  0  0  0  0  0  0
    2.8790    1.2039    0.0000 C   0  0  0  0  0  0  0  0  0  0  0  0
    1.3477    1.2273    0.0000 C   0  0  0  0  0  0  0  0  0  0  0  0
    0.5468   -0.0410    0.0000 O   0  0  0  0  0  0  0  0  0  0  0  0
    0.6793    2.5775    0.0000 N   0  0  0  0  0  0  0  0  0  0  0  0
   -0.8088    2.6834    0.0000 C   0  0  0  0  0  0  0  0  0  0  0  0
   -1.6500    1.4418    0.0000 C   0  0  0  0  0  0  0  0  0  0  0  0
   -3.1463    1.5494    0.0000 C   0  0  0  0  0  0  0  0  0  0  0  0
   -3.8007    2.8992    0.0000 O   0  0  0  0  0  0  0  0  0  0  0  0
   -3.9879    0.3076    0.0000 O   0  0  0  0  0  0  0  0  0  0  0  0
   -1.4643    4.0453    0.0000 C   0  0  0  0  0  0  0  0  0  0  0  0
   -0.6216    5.2862    0.0000 O   0  0  0  0  0  0  0  0  0  0  0  0
   -2.9528    4.1538    0.0000 N   0  0  0  0  0  0  0  0  0  0  0  0
   -3.6475    5.4590    0.0000 C   0  0  0  0  0  0  0  0  0  0  0  0
   -5.1469    5.4961    0.0000 C   0  0  0  0  0  0  0  0  0  0  0  0
   -5.9289    4.2161    0.0000 C   0  0  0  0  0  0  0  0  0  0  0  0
   -7.4242    4.0965    0.0000 C   0  0  0  0  0  0  0  0  0  0  0  0
   -7.7725    2.6375    0.0000 C   0  0  0  0  0  0  0  0  0  0  0  0
   -6.4922    1.8553    0.0000 N   0  0  0  0  0  0  0  0  0  0  0  0
   -5.3528    2.8310    0.0000 C   0  0  0  0  0  0  0  0  0  0  0  0
   -9.2101    2.2094    0.0000 C   0  0  0  0  0  0  0  0  0  0  0  0
  -10.2994    3.2403    0.0000 C   0  0  0  0  0  0  0  0  0  0  0  0
   -9.9511    4.6995    0.0000 C   0  0  0  0  0  0  0  0  0  0  0  0
   -8.5135    5.1274    0.0000 C   0  0  0  0  0  0  0  0  0  0  0  0
   -2.8718    6.7558    0.0000 C   0  0  0  0  0  0  0  0  0  0  0  0
   -1.3755    6.6569    0.0000 O   0  0  0  0  0  0  0  0  0  0  0  0
   -3.4253    8.0389    0.0000 N   0  0  0  0  0  0  0  0  0  0  0  0
   -3.1124    9.3761    0.0000 C   0  0  0  0  0  0  0  0  0  0  0  0
   -4.4024   10.2130    0.0000 C   0  0  0  0  0  0  0  0  0  0  0  0
   -5.5351    9.2137    0.0000 C   0  0  0  0  0  0  0  0  0  0  0  0
   -4.9270    7.8233    0.0000 C   0  0  0  0  0  0  0  0  0  0  0  0
   -2.0980   10.3002    0.0000 C   0  0  0  0  0  0  0  0  0  0  0  0
   -2.5683   11.7245    0.0000 O   0  0  0  0  0  0  0  0  0  0  0  0
   -0.6171   10.1506    0.0000 N   0  0  0  0  0  0  0  0  0  0  0  0
    0.2587   11.3664    0.0000 C   0  0  0  0  0  0  0  0  0  0  0  0
    1.6975   11.3569    0.0000 C   0  0  0  0  0  0  0  0  0  0  0  0
   -0.4206   12.7035    0.0000 C   0  0  0  0  0  0  0  0  0  0  0  0
    0.3980   13.9606    0.0000 O   0  0  0  0  0  0  0  0  0  0  0  0
   -1.9184   12.7841    0.0000 N   0  0  0  0  0  0  0  0  0  0  0  0
  2  1  1  0  0  0  0
  1 54  1  0  0  0  0
  3  2  1  0  0  0  0
  4  3  1  0  0  0  0
  5  4  1  0  0  0  0
  5  6  2  0  0  0  0
  7  5  1  0  0  0  0
  8  7  1  0  0  0  0
  8  9  1  0  0  0  0
 17  8  1  0  0  0  0
  9 10  1  0  0  0  0
 10 11  1  0  0  0  0
 11 12  1  0  0  0  0
 12 13  1  0  0  0  0
 13 14  1  0  0  0  0
 14 15  1  0  0  0  0
 14 16  2  0  0  0  0
 17 18  2  0  0  0  0
 19 17  1  0  0  0  0
 20 19  1  0  0  0  0
 21 20  1  0  0  0  0
 21 22  2  0  0  0  0
 23 21  1  0  0  0  0
 24 23  1  0  0  0  0
 24 25  1  0  0  0  0
 29 24  1  0  0  0  0
 25 26  1  0  0  0  0
 26 27  1  0  0  0  0
 26 28  2  0  0  0  0
 29 30  2  0  0  0  0
 31 29  1  0  0  0  0
 32 31  1  0  0  0  0
 32 33  1  0  0  0  0
 43 32  1  0  0  0  0
 33 34  1  0  0  0  0
 35 34  1  0  0  0  0
 34 38  2  0  0  0  0
 35 36  2  0  0  0  0
 42 35  1  0  0  0  0
 37 36  1  0  0  0  0
 36 39  1  0  0  0  0
 38 37  1  0  0  0  0
 39 40  2  0  0  0  0
 40 41  1  0  0  0  0
 41 42  2  0  0  0  0
 43 44  2  0  0  0  0
 45 43  1  0  0  0  0
 45 46  1  0  0  0  0
 49 45  1  0  0  0  0
 46 47  1  0  0  0  0
 50 46  1  0  0  0  0
 47 48  1  0  0  0  0
 48 49  1  0  0  0  0
 50 51  2  0  0  0  0
 52 50  1  0  0  0  0
 53 52  1  0  0  0  0
 54 53  1  0  0  0  0
 53 55  1  0  0  0  0
 55 56  2  0  0  0  0
 55 57  1  0  0  0  0
M  END
> <Inchi_key>
CZKPOZZJODAYPZ-UHFFFAOYSA-N

> <Source>
Kotsampasakou

> <ID>
EK0188

> <H_MFHB>


> <CAS>


> <Cholestasis>
0

> <Name>
eptifibatide

> <Class>
0

$$$$