

  -INDIGO-08031710012D

 16 16  0  0  0  0  0  0  0  0999 V2000
   12.7982   -3.4293    0.0000 C   0  0  0  0  0  0  0  0  0  0  0  0
   11.4993   -2.6793    0.0000 C   0  0  0  0  0  0  0  0  0  0  0  0
   10.2000   -3.4293    0.0000 N   0  0  0  0  0  0  0  0  0  0  0  0
    8.9011   -2.6793    0.0000 C   0  0  0  0  0  0  0  0  0  0  0  0
    8.9011   -1.1793    0.0000 C   0  0  0  0  0  0  0  0  0  0  0  0
    7.6020   -3.4293    0.0000 C   0  0  0  0  0  0  0  0  0  0  0  0
    6.3029   -2.6793    0.0000 C   0  0  0  0  0  0  0  0  0  0  0  0
    6.3029   -1.1793    0.0000 C   0  0  0  0  0  0  0  0  0  0  0  0
    5.0040   -0.4293    0.0000 C   0  0  0  0  0  0  0  0  0  0  0  0
    3.7049   -1.1793    0.0000 C   0  0  0  0  0  0  0  0  0  0  0  0
    3.7049   -2.6793    0.0000 C   0  0  0  0  0  0  0  0  0  0  0  0
    5.0040   -3.4293    0.0000 C   0  0  0  0  0  0  0  0  0  0  0  0
    2.4058   -3.4293    0.0000 C   0  0  0  0  0  0  0  0  0  0  0  0
    3.1560   -4.7283    0.0000 F   0  0  0  0  0  0  0  0  0  0  0  0
    1.6558   -2.1302    0.0000 F   0  0  0  0  0  0  0  0  0  0  0  0
    1.1069   -4.1793    0.0000 F   0  0  0  0  0  0  0  0  0  0  0  0
  1  2  1  0  0  0  0
  2  3  1  0  0  0  0
  3  4  1  0  0  0  0
  4  5  1  0  0  0  0
  4  6  1  0  0  0  0
  6  7  1  0  0  0  0
  8  7  2  0  0  0  0
  7 12  1  0  0  0  0
  9  8  1  0  0  0  0
 10  9  2  0  0  0  0
 11 10  1  0  0  0  0
 12 11  2  0  0  0  0
 11 13  1  0  0  0  0
 13 14  1  0  0  0  0
 13 15  1  0  0  0  0
 13 16  1  0  0  0  0
M  END
> <Inchi_key>
DBGIVFWFUFKIQN-UHFFFAOYSA-N

> <Source>
Mulliner , Kotsampasakou

> <ID>
EK0208;HT0858

> <H_MFHB>
0

> <CAS>


> <Cholestasis>
0

> <Name>
fenfluramine;dexfenfluramine;dexfenfluramine fenfluramine

> <Class>
0


$$$$