
  -INDIGO-08031710012D

  9  8  0  0  0  0  0  0  0  0999 V2000
    1.0893    2.2440    0.0000 N   0  0  0  0  0  0  0  0  0  0  0  0
    1.0893    0.7440    0.0000 C   0  0  0  0  0  0  0  0  0  0  0  0
    2.3884   -0.0060    0.0000 C   0  0  0  0  0  0  0  0  0  0  0  0
    3.6874    0.7440    0.0000 C   0  0  0  0  0  0  0  0  0  0  0  0
    3.6874    2.2440    0.0000 O   0  0  0  0  0  0  0  0  0  0  0  0
    4.9864   -0.0060    0.0000 N   0  0  0  0  0  0  0  0  0  0  0  0
   -0.2097   -0.0060    0.0000 C   0  0  0  0  0  0  0  0  0  0  0  0
   -1.5088    0.7440    0.0000 O   0  0  0  0  0  0  0  0  0  0  0  0
   -0.2097   -1.5060    0.0000 O   0  0  0  0  0  0  0  0  0  0  0  0
  1  2  1  0  0  0  0
  2  3  1  0  0  0  0
  2  7  1  0  0  0  0
  3  4  1  0  0  0  0
  4  5  2  0  0  0  0
  4  6  1  0  0  0  0
  7  8  2  0  0  0  0
  7  9  1  0  0  0  0
M  END
> <Inchi_key>
DCXYFEDJOCDNAF-UHFFFAOYSA-N

> <Source>
Mulliner

> <ID>
HT1174

> <H_MFHB>
0

> <CAS>


> <Cholestasis>


> <Name>
l-asparagine

> <Class>
0

$$$$