
  -INDIGO-08031710012D

 21 21  0  0  0  0  0  0  0  0999 V2000
    6.6088   -6.6088    0.0000 C   0  0  0  0  0  0  0  0  0  0  0  0
    6.6088   -5.1088    0.0000 C   0  0  0  0  0  0  0  0  0  0  0  0
    7.9079   -4.3588    0.0000 C   0  0  0  0  0  0  0  0  0  0  0  0
    7.9079   -2.8588    0.0000 C   0  0  0  0  0  0  0  0  0  0  0  0
    6.6088   -2.1088    0.0000 C   0  0  0  0  0  0  0  0  0  0  0  0
    5.3098   -2.8588    0.0000 C   0  0  0  0  0  0  0  0  0  0  0  0
    4.0107   -2.1088    0.0000 C   0  0  0  0  0  0  0  0  0  0  0  0
    5.3098   -4.3588    0.0000 C   0  0  0  0  0  0  0  0  0  0  0  0
    4.0107   -5.1088    0.0000 N   0  0  0  0  0  0  0  0  0  0  0  0
    2.7117   -4.3588    0.0000 C   0  0  0  0  0  0  0  0  0  0  0  0
    2.7117   -2.8588    0.0000 O   0  0  0  0  0  0  0  0  0  0  0  0
    1.4128   -5.1088    0.0000 C   0  0  0  0  0  0  0  0  0  0  0  0
    0.1136   -4.3588    0.0000 N   0  0  0  0  0  0  0  0  0  0  0  0
   -1.1853   -5.1088    0.0000 C   0  0  0  0  0  0  0  0  0  0  0  0
   -1.1853   -6.6088    0.0000 C   0  0  0  0  0  0  0  0  0  0  0  0
   -2.4844   -7.3588    0.0000 O   0  0  0  0  0  0  0  0  0  0  0  0
    0.1136   -7.3588    0.0000 O   0  0  0  0  0  0  0  0  0  0  0  0
    0.1136   -2.8588    0.0000 C   0  0  0  0  0  0  0  0  0  0  0  0
   -1.1853   -2.1088    0.0000 C   0  0  0  0  0  0  0  0  0  0  0  0
   -1.1853   -0.6088    0.0000 O   0  0  0  0  0  0  0  0  0  0  0  0
   -2.4844   -2.8588    0.0000 O   0  0  0  0  0  0  0  0  0  0  0  0
  1  2  1  0  0  0  0
  3  2  2  0  0  0  0
  2  8  1  0  0  0  0
  4  3  1  0  0  0  0
  5  4  2  0  0  0  0
  6  5  1  0  0  0  0
  6  7  1  0  0  0  0
  8  6  2  0  0  0  0
  8  9  1  0  0  0  0
  9 10  1  0  0  0  0
 10 11  2  0  0  0  0
 10 12  1  0  0  0  0
 12 13  1  0  0  0  0
 13 14  1  0  0  0  0
 13 18  1  0  0  0  0
 14 15  1  0  0  0  0
 15 16  2  0  0  0  0
 15 17  1  0  0  0  0
 18 19  1  0  0  0  0
 19 20  2  0  0  0  0
 19 21  1  0  0  0  0
M  END
> <Inchi_key>
DJQJFMSHHYAZJD-UHFFFAOYSA-N

> <Source>
Mulliner

> <ID>
HT3323

> <H_MFHB>
0

> <CAS>


> <Cholestasis>


> <Name>


> <Class>
0

$$$$