
  -INDIGO-08031710012D

 19 20  0  0  0  0  0  0  0  0999 V2000
    8.0559   -0.3472    0.0000 C   0  0  0  0  0  0  0  0  0  0  0  0
    8.0559   -1.8472    0.0000 C   0  0  0  0  0  0  0  0  0  0  0  0
    6.7568   -2.5972    0.0000 C   0  0  0  0  0  0  0  0  0  0  0  0
    6.7568   -4.0972    0.0000 N   0  0  0  0  0  0  0  0  0  0  0  0
    8.0559   -4.8472    0.0000 C   0  0  0  0  0  0  0  0  0  0  0  0
    8.0559   -6.3472    0.0000 C   0  0  0  0  0  0  0  0  0  0  0  0
    9.3549   -7.0972    0.0000 C   0  0  0  0  0  0  0  0  0  0  0  0
    5.4578   -4.8472    0.0000 C   0  0  0  0  0  0  0  0  0  0  0  0
    4.1588   -4.0972    0.0000 C   0  0  0  0  0  0  0  0  0  0  0  0
    2.8597   -4.8472    0.0000 C   0  0  0  0  0  0  0  0  0  0  0  0
    2.8597   -6.3472    0.0000 C   0  0  0  0  0  0  0  0  0  0  0  0
    1.5607   -7.0972    0.0000 C   0  0  0  0  0  0  0  0  0  0  0  0
    0.2617   -6.3472    0.0000 C   0  0  0  0  0  0  0  0  0  0  0  0
    0.2617   -4.8472    0.0000 C   0  0  0  0  0  0  0  0  0  0  0  0
   -0.8531   -3.8435    0.0000 N   0  0  0  0  0  0  0  0  0  0  0  0
   -0.2430   -2.4732    0.0000 C   0  0  0  0  0  0  0  0  0  0  0  0
   -0.9930   -1.1742    0.0000 O   0  0  0  0  0  0  0  0  0  0  0  0
    1.2488   -2.6300    0.0000 C   0  0  0  0  0  0  0  0  0  0  0  0
    1.5607   -4.0972    0.0000 C   0  0  0  0  0  0  0  0  0  0  0  0
  1  2  1  0  0  0  0
  2  3  1  0  0  0  0
  3  4  1  0  0  0  0
  4  5  1  0  0  0  0
  4  8  1  0  0  0  0
  5  6  1  0  0  0  0
  6  7  1  0  0  0  0
  8  9  1  0  0  0  0
  9 10  1  0  0  0  0
 11 10  2  0  0  0  0
 10 19  1  0  0  0  0
 12 11  1  0  0  0  0
 13 12  2  0  0  0  0
 14 13  1  0  0  0  0
 15 14  1  0  0  0  0
 14 19  2  0  0  0  0
 16 15  1  0  0  0  0
 16 17  1  0  0  0  0
 18 16  2  0  0  0  0
 19 18  1  0  0  0  0
M  END
> <Inchi_key>
FBYFJOVKHROJSY-UHFFFAOYSA-N

> <Source>
Mulliner

> <ID>
HT1846

> <H_MFHB>
0

> <CAS>
91374-20-8

> <Cholestasis>


> <Name>
ropinirole hydrochloride;ropinirole

> <Class>
0

$$$$