

  -INDIGO-08031710012D

 22 24  0  0  0  0  0  0  0  0999 V2000
   11.3523    4.4285    0.0000 C   0  0  0  0  0  0  0  0  0  0  0  0
   10.6023    5.7276    0.0000 O   0  0  0  0  0  0  0  0  0  0  0  0
    9.1023    5.7276    0.0000 C   0  0  0  0  0  0  0  0  0  0  0  0
    8.3523    4.4285    0.0000 C   0  0  0  0  0  0  0  0  0  0  0  0
    6.8522    4.4285    0.0000 C   0  0  0  0  0  0  0  0  0  0  0  0
    6.1022    5.7276    0.0000 C   0  0  0  0  0  0  0  0  0  0  0  0
    6.8522    7.0266    0.0000 C   0  0  0  0  0  0  0  0  0  0  0  0
    8.3523    7.0266    0.0000 C   0  0  0  0  0  0  0  0  0  0  0  0
    9.1023    8.3257    0.0000 O   0  0  0  0  0  0  0  0  0  0  0  0
    4.6024    5.7276    0.0000 C   0  0  0  0  0  0  0  0  0  0  0  0
    3.8524    7.0266    0.0000 C   0  0  0  0  0  0  0  0  0  0  0  0
    2.3523    7.0266    0.0000 C   0  0  0  0  0  0  0  0  0  0  0  0
    1.6023    8.3257    0.0000 O   0  0  0  0  0  0  0  0  0  0  0  0
    1.6023    5.7276    0.0000 C   0  0  0  0  0  0  0  0  0  0  0  0
    0.1023    5.7276    0.0000 C   0  0  0  0  0  0  0  0  0  0  0  0
   -0.6477    7.0266    0.0000 O   0  0  0  0  0  0  0  0  0  0  0  0
   -0.6477    4.4285    0.0000 C   0  0  0  0  0  0  0  0  0  0  0  0
    0.1023    3.1295    0.0000 C   0  0  0  0  0  0  0  0  0  0  0  0
   -0.6477    1.8305    0.0000 O   0  0  0  0  0  0  0  0  0  0  0  0
    1.6023    3.1295    0.0000 C   0  0  0  0  0  0  0  0  0  0  0  0
    2.3523    4.4285    0.0000 C   0  0  0  0  0  0  0  0  0  0  0  0
    3.8524    4.4285    0.0000 O   0  0  0  0  0  0  0  0  0  0  0  0
  1  2  1  0  0  0  0
  2  3  1  0  0  0  0
  4  3  2  0  0  0  0
  3  8  1  0  0  0  0
  5  4  1  0  0  0  0
  6  5  2  0  0  0  0
  7  6  1  0  0  0  0
  6 10  1  0  0  0  0
  8  7  2  0  0  0  0
  8  9  1  0  0  0  0
 11 10  1  0  0  0  0
 10 22  1  0  0  0  0
 12 11  1  0  0  0  0
 12 13  2  0  0  0  0
 14 12  1  0  0  0  0
 15 14  2  0  0  0  0
 14 21  1  0  0  0  0
 15 16  1  0  0  0  0
 17 15  1  0  0  0  0
 18 17  2  0  0  0  0
 18 19  1  0  0  0  0
 20 18  1  0  0  0  0
 21 20  2  0  0  0  0
 22 21  1  0  0  0  0
M  END
> <Inchi_key>
AIONOLUJZLIMTK-UHFFFAOYSA-N

> <Source>
Mulliner

> <ID>
HT1026

> <H_MFHB>
0

> <CAS>


> <Cholestasis>


> <Name>
hesperetin

> <Class>
0


$$$$