
  -INDIGO-08031710012D

 34 38  0  0  0  0  0  0  0  0999 V2000
    7.5337    7.5338    0.0000 C   0  0  0  0  0  0  0  0  0  0  0  0
    7.5337    6.0339    0.0000 C   0  0  0  0  0  0  0  0  0  0  0  0
    6.2348    5.2838    0.0000 C   0  0  0  0  0  0  0  0  0  0  0  0
    4.9358    6.0339    0.0000 C   0  0  0  0  0  0  0  0  0  0  0  0
    3.6368    5.2838    0.0000 N   0  0  0  0  0  0  0  0  0  0  0  0
    2.3375    6.0339    0.0000 C   0  0  0  0  0  0  0  0  0  0  0  0
    1.0385    5.2838    0.0000 C   0  0  0  0  0  0  0  0  0  0  0  0
    1.0385    3.7838    0.0000 C   0  0  0  0  0  0  0  0  0  0  0  0
   -0.2605    3.0339    0.0000 C   0  0  0  0  0  0  0  0  0  0  0  0
   -0.2605    1.5338    0.0000 C   0  0  0  0  0  0  0  0  0  0  0  0
   -1.5595    0.7838    0.0000 O   0  0  0  0  0  0  0  0  0  0  0  0
   -2.8585    1.5338    0.0000 C   0  0  0  0  0  0  0  0  0  0  0  0
    1.0385    0.7838    0.0000 C   0  0  0  0  0  0  0  0  0  0  0  0
    1.0385   -0.7162    0.0000 O   0  0  0  0  0  0  0  0  0  0  0  0
   -0.2605   -1.4662    0.0000 C   0  0  0  0  0  0  0  0  0  0  0  0
    2.3375    1.5338    0.0000 C   0  0  0  0  0  0  0  0  0  0  0  0
    2.3375    3.0339    0.0000 C   0  0  0  0  0  0  0  0  0  0  0  0
    3.6368    3.7838    0.0000 C   0  0  0  0  0  0  0  0  0  0  0  0
    4.9358    3.0339    0.0000 C   0  0  0  0  0  0  0  0  0  0  0  0
    6.2348    3.7838    0.0000 C   0  0  0  0  0  0  0  0  0  0  0  0
    7.5337    3.0339    0.0000 C   0  0  0  0  0  0  0  0  0  0  0  0
    7.5337    1.5338    0.0000 C   0  0  0  0  0  0  0  0  0  0  0  0
    6.2348    0.7838    0.0000 N   0  0  0  0  0  0  0  0  0  0  0  0
    6.2348   -0.7162    0.0000 C   0  0  0  0  0  0  0  0  0  0  0  0
    7.5337   -1.4662    0.0000 C   0  0  0  0  0  0  0  0  0  0  0  0
    8.8327   -0.7162    0.0000 C   0  0  0  0  0  0  0  0  0  0  0  0
   10.1317   -1.4662    0.0000 C   0  0  0  0  0  0  0  0  0  0  0  0
   11.4310   -0.7162    0.0000 C   0  0  0  0  0  0  0  0  0  0  0  0
   12.7300   -1.4662    0.0000 O   0  0  0  0  0  0  0  0  0  0  0  0
   11.4310    0.7838    0.0000 C   0  0  0  0  0  0  0  0  0  0  0  0
   12.7300    1.5338    0.0000 O   0  0  0  0  0  0  0  0  0  0  0  0
   14.0290    0.7838    0.0000 C   0  0  0  0  0  0  0  0  0  0  0  0
   10.1317    1.5338    0.0000 C   0  0  0  0  0  0  0  0  0  0  0  0
    8.8327    0.7838    0.0000 C   0  0  0  0  0  0  0  0  0  0  0  0
  1  2  1  0  0  0  0
  2  3  1  0  0  0  0
  4  3  1  0  0  0  0
  3 20  1  0  0  0  0
  5  4  1  0  0  0  0
  6  5  1  0  0  0  0
  5 18  1  0  0  0  0
  7  6  1  0  0  0  0
  8  7  1  0  0  0  0
  9  8  2  0  0  0  0
  8 17  1  0  0  0  0
 10  9  1  0  0  0  0
 10 11  1  0  0  0  0
 13 10  2  0  0  0  0
 11 12  1  0  0  0  0
 13 14  1  0  0  0  0
 16 13  1  0  0  0  0
 14 15  1  0  0  0  0
 17 16  2  0  0  0  0
 18 17  1  0  0  0  0
 19 18  1  0  0  0  0
 20 19  1  0  0  0  0
 20 21  1  0  0  0  0
 21 22  1  0  0  0  0
 23 22  1  0  0  0  0
 22 34  1  0  0  0  0
 24 23  1  0  0  0  0
 25 24  1  0  0  0  0
 26 25  1  0  0  0  0
 27 26  2  0  0  0  0
 26 34  1  0  0  0  0
 28 27  1  0  0  0  0
 28 29  1  0  0  0  0
 30 28  2  0  0  0  0
 30 31  1  0  0  0  0
 33 30  1  0  0  0  0
 31 32  1  0  0  0  0
 34 33  2  0  0  0  0
M  END
> <Inchi_key>
DTGZHCFJNDAHEN-UHFFFAOYSA-N

> <Source>
Mulliner

> <ID>
HT2279

> <H_MFHB>
0

> <CAS>


> <Cholestasis>


> <Name>


> <Class>
0

$$$$