

  -INDIGO-08031710012D

 17 17  0  0  0  0  0  0  0  0999 V2000
   -1.7716   -3.0686    0.0000 O   0  0  0  0  0  0  0  0  0  0  0  0
   -1.0217   -4.3676    0.0000 P   0  0  0  0  0  0  0  0  0  0  0  0
   -0.2717   -5.6667    0.0000 O   0  0  0  0  0  0  0  0  0  0  0  0
   -2.3207   -5.1176    0.0000 O   0  0  0  0  0  0  0  0  0  0  0  0
    0.2773   -3.6176    0.0000 C   0  0  0  0  0  0  0  0  0  0  0  0
    1.5764   -4.3676    0.0000 S   0  0  0  0  0  0  0  0  0  0  0  0
    2.8755   -3.6176    0.0000 C   0  0  0  0  0  0  0  0  0  0  0  0
    4.1746   -4.3676    0.0000 C   0  0  0  0  0  0  0  0  0  0  0  0
    5.4734   -3.6176    0.0000 C   0  0  0  0  0  0  0  0  0  0  0  0
    5.4734   -2.1176    0.0000 C   0  0  0  0  0  0  0  0  0  0  0  0
    6.7726   -1.3676    0.0000 Cl  0  0  0  0  0  0  0  0  0  0  0  0
    4.1746   -1.3676    0.0000 C   0  0  0  0  0  0  0  0  0  0  0  0
    2.8755   -2.1176    0.0000 C   0  0  0  0  0  0  0  0  0  0  0  0
    0.2773   -2.1176    0.0000 P   0  0  0  0  0  0  0  0  0  0  0  0
    1.7774   -2.1176    0.0000 O   0  0  0  0  0  0  0  0  0  0  0  0
    0.2773   -0.6176    0.0000 O   0  0  0  0  0  0  0  0  0  0  0  0
   -1.2226   -2.1176    0.0000 O   0  0  0  0  0  0  0  0  0  0  0  0
  1  2  2  0  0  0  0
  2  3  1  0  0  0  0
  2  4  1  0  0  0  0
  2  5  1  0  0  0  0
  5  6  1  0  0  0  0
  5 14  1  0  0  0  0
  6  7  1  0  0  0  0
  8  7  2  0  0  0  0
  7 13  1  0  0  0  0
  9  8  1  0  0  0  0
 10  9  2  0  0  0  0
 10 11  1  0  0  0  0
 12 10  1  0  0  0  0
 13 12  2  0  0  0  0
 14 15  2  0  0  0  0
 14 16  1  0  0  0  0
 14 17  1  0  0  0  0
M  END
> <Inchi_key>
DKJJVAGXPKPDRL-UHFFFAOYSA-N

> <Source>
Mulliner , Kotsampasakou

> <ID>
EK0529;HT2062

> <H_MFHB>
0

> <CAS>


> <Cholestasis>
0

> <Name>
tiludronate disodium;tiludronate;tiludronic acid

> <Class>
0


$$$$