
  -INDIGO-08031709442D

 26 26  0  0  0  0  0  0  0  0999 V2000
    1.2288   -7.5026    0.0000 O   0  0  0  0  0  0  0  0  0  0  0  0
    2.6503   -7.0241    0.0000 C   0  0  0  0  0  0  0  0  0  0  0  0
    3.8733   -7.8930    0.0000 C   0  0  0  0  0  0  0  0  0  0  0  0
    5.0773   -6.9986    0.0000 C   0  0  0  0  0  0  0  0  0  0  0  0
    6.5086   -7.4470    0.0000 O   0  0  0  0  0  0  0  0  0  0  0  0
    4.5987   -5.5770    0.0000 C   0  0  0  0  0  0  0  0  0  0  0  0
    5.4676   -4.3543    0.0000 C   0  0  0  0  0  0  0  0  0  0  0  0
    6.9609   -4.4954    0.0000 C   0  0  0  0  0  0  0  0  0  0  0  0
    7.8300   -3.2726    0.0000 C   0  0  0  0  0  0  0  0  0  0  0  0
    9.0525   -4.1413    0.0000 O   0  0  0  0  0  0  0  0  0  0  0  0
    8.6989   -2.0498    0.0000 C   0  0  0  0  0  0  0  0  0  0  0  0
   10.1922   -2.1909    0.0000 C   0  0  0  0  0  0  0  0  0  0  0  0
   11.0610   -0.9681    0.0000 C   0  0  0  0  0  0  0  0  0  0  0  0
   12.5543   -1.1092    0.0000 C   0  0  0  0  0  0  0  0  0  0  0  0
   13.4232    0.1136    0.0000 C   0  0  0  0  0  0  0  0  0  0  0  0
    6.6073   -2.4037    0.0000 C   0  0  0  0  0  0  0  0  0  0  0  0
    3.0990   -5.5928    0.0000 C   0  0  0  0  0  0  0  0  0  0  0  0
    2.2045   -4.3886    0.0000 C   0  0  0  0  0  0  0  0  0  0  0  0
    0.7145   -4.5611    0.0000 C   0  0  0  0  0  0  0  0  0  0  0  0
   -0.1800   -3.3569    0.0000 C   0  0  0  0  0  0  0  0  0  0  0  0
    0.4157   -1.9802    0.0000 C   0  0  0  0  0  0  0  0  0  0  0  0
   -0.4788   -0.7760    0.0000 C   0  0  0  0  0  0  0  0  0  0  0  0
    0.1169    0.6006    0.0000 C   0  0  0  0  0  0  0  0  0  0  0  0
   -0.7773    1.8048    0.0000 C   0  0  0  0  0  0  0  0  0  0  0  0
   -0.1819    3.1815    0.0000 O   0  0  0  0  0  0  0  0  0  0  0  0
   -2.2675    1.6322    0.0000 O   0  0  0  0  0  0  0  0  0  0  0  0
  1  2  1  0  0  0  0
  3  2  1  0  0  0  0
  2 17  1  0  0  0  0
  4  3  1  0  0  0  0
  4  5  1  0  0  0  0
  6  4  1  0  0  0  0
  6  7  1  0  0  0  0
 17  6  1  0  0  0  0
  7  8  2  0  0  0  0
  8  9  1  0  0  0  0
  9 10  1  0  0  0  0
  9 11  1  0  0  0  0
  9 16  1  0  0  0  0
 11 12  1  0  0  0  0
 12 13  1  0  0  0  0
 13 14  1  0  0  0  0
 14 15  1  0  0  0  0
 17 18  1  0  0  0  0
 18 19  1  0  0  0  0
 19 20  2  0  0  0  0
 20 21  1  0  0  0  0
 21 22  1  0  0  0  0
 22 23  1  0  0  0  0
 23 24  1  0  0  0  0
 24 25  1  0  0  0  0
 24 26  2  0  0  0  0
M  END
> <Inchi_key>
DLJKPYFALUEJCK-LJRDKERCSA-N, DLJKPYFALUEJCK-XLELIILASA-N

> <Source>
Kotsampasakou,  Mulliner

> <ID>
HT0381;EK0092

> <H_MFHB>
0

> <CAS>


> <Cholestasis>
0

> <Name>
carboprost tromethamine

> <Class>
0

$$$$