
  -INDIGO-08031710012D

 11 11  0  0  0  0  0  0  0  0999 V2000
    7.0909   -1.8895    0.0000 C   0  0  0  0  0  0  0  0  0  0  0  0
    5.5909   -1.8895    0.0000 C   0  0  0  0  0  0  0  0  0  0  0  0
    4.8409   -3.1885    0.0000 N   0  0  0  0  0  0  0  0  0  0  0  0
    4.8409   -0.5905    0.0000 C   0  0  0  0  0  0  0  0  0  0  0  0
    5.5909    0.7086    0.0000 O   0  0  0  0  0  0  0  0  0  0  0  0
    3.3409   -0.5905    0.0000 C   0  0  0  0  0  0  0  0  0  0  0  0
    2.5909   -1.8895    0.0000 C   0  0  0  0  0  0  0  0  0  0  0  0
    1.0909   -1.8895    0.0000 C   0  0  0  0  0  0  0  0  0  0  0  0
    0.3409   -0.5905    0.0000 C   0  0  0  0  0  0  0  0  0  0  0  0
    1.0909    0.7086    0.0000 C   0  0  0  0  0  0  0  0  0  0  0  0
    2.5909    0.7086    0.0000 C   0  0  0  0  0  0  0  0  0  0  0  0
  1  2  1  0  0  0  0
  2  3  1  0  0  0  0
  2  4  1  0  0  0  0
  4  5  1  0  0  0  0
  4  6  1  0  0  0  0
  7  6  2  0  0  0  0
  6 11  1  0  0  0  0
  8  7  1  0  0  0  0
  9  8  2  0  0  0  0
 10  9  1  0  0  0  0
 11 10  2  0  0  0  0
M  END
> <Inchi_key>
DLNKOYKMWOXYQA-UHFFFAOYSA-N

> <Source>
Mulliner , Kotsampasakou

> <ID>
EK0098;HT1662

> <H_MFHB>
0

> <CAS>


> <Cholestasis>
0

> <Name>
phenylpropanolamine;cathine

> <Class>
0

$$$$