

  -INDIGO-08031710012D

 26 29  0  0  0  0  0  0  0  0999 V2000
   15.6726    0.2222    0.0000 C   0  0  0  0  0  0  0  0  0  0  0  0
   14.3736    0.9721    0.0000 C   0  0  0  0  0  0  0  0  0  0  0  0
   14.3736    2.4721    0.0000 O   0  0  0  0  0  0  0  0  0  0  0  0
   13.0745    0.2222    0.0000 O   0  0  0  0  0  0  0  0  0  0  0  0
   11.7755    0.9721    0.0000 C   0  0  0  0  0  0  0  0  0  0  0  0
   10.4051    0.3620    0.0000 C   0  0  0  0  0  0  0  0  0  0  0  0
    9.4013    1.4768    0.0000 C   0  0  0  0  0  0  0  0  0  0  0  0
    7.9014    1.4768    0.0000 C   0  0  0  0  0  0  0  0  0  0  0  0
    7.1513    2.7758    0.0000 N   0  0  0  0  0  0  0  0  0  0  0  0
    7.9014    4.0748    0.0000 C   0  0  0  0  0  0  0  0  0  0  0  0
    9.4013    4.0748    0.0000 C   0  0  0  0  0  0  0  0  0  0  0  0
   10.1514    2.7758    0.0000 C   0  0  0  0  0  0  0  0  0  0  0  0
   11.6185    2.4639    0.0000 S   0  0  0  0  0  0  0  0  0  0  0  0
    5.6514    2.7758    0.0000 C   0  0  0  0  0  0  0  0  0  0  0  0
    4.9014    4.0748    0.0000 C   0  0  0  0  0  0  0  0  0  0  0  0
    3.4015    4.0748    0.0000 O   0  0  0  0  0  0  0  0  0  0  0  0
    5.6514    5.3739    0.0000 C   0  0  0  0  0  0  0  0  0  0  0  0
    6.9505    6.1239    0.0000 C   0  0  0  0  0  0  0  0  0  0  0  0
    5.6514    6.8739    0.0000 C   0  0  0  0  0  0  0  0  0  0  0  0
    4.9014    1.4768    0.0000 C   0  0  0  0  0  0  0  0  0  0  0  0
    5.6514    0.1777    0.0000 C   0  0  0  0  0  0  0  0  0  0  0  0
    4.9014   -1.1213    0.0000 C   0  0  0  0  0  0  0  0  0  0  0  0
    3.4015   -1.1213    0.0000 C   0  0  0  0  0  0  0  0  0  0  0  0
    2.6514    0.1777    0.0000 C   0  0  0  0  0  0  0  0  0  0  0  0
    3.4015    1.4768    0.0000 C   0  0  0  0  0  0  0  0  0  0  0  0
    2.6514    2.7758    0.0000 F   0  0  0  0  0  0  0  0  0  0  0  0
  1  2  1  0  0  0  0
  2  3  2  0  0  0  0
  2  4  1  0  0  0  0
  4  5  1  0  0  0  0
  6  5  2  0  0  0  0
  5 13  1  0  0  0  0
  7  6  1  0  0  0  0
  8  7  1  0  0  0  0
  7 12  2  0  0  0  0
  9  8  1  0  0  0  0
 10  9  1  0  0  0  0
  9 14  1  0  0  0  0
 11 10  1  0  0  0  0
 12 11  1  0  0  0  0
 13 12  1  0  0  0  0
 14 15  1  0  0  0  0
 14 20  1  0  0  0  0
 15 16  2  0  0  0  0
 15 17  1  0  0  0  0
 18 17  1  0  0  0  0
 17 19  1  0  0  0  0
 19 18  1  0  0  0  0
 21 20  2  0  0  0  0
 20 25  1  0  0  0  0
 22 21  1  0  0  0  0
 23 22  2  0  0  0  0
 24 23  1  0  0  0  0
 25 24  2  0  0  0  0
 25 26  1  0  0  0  0
M  END
> <Inchi_key>
DTGLZDAWLRGWQN-UHFFFAOYSA-N

> <Source>
Mulliner

> <ID>
HT1724

> <H_MFHB>
0

> <CAS>


> <Cholestasis>


> <Name>
prasugrel hydrochloride

> <Class>
0


$$$$