

  -INDIGO-08031710012D

 22 23  0  0  0  0  0  0  0  0999 V2000
   12.2863   -3.2921    0.0000 C   0  0  0  0  0  0  0  0  0  0  0  0
   10.9872   -2.5421    0.0000 C   0  0  0  0  0  0  0  0  0  0  0  0
   10.9872   -1.0421    0.0000 N   0  0  0  0  0  0  0  0  0  0  0  0
   12.2863   -0.2921    0.0000 C   0  0  0  0  0  0  0  0  0  0  0  0
   12.2863    1.2079    0.0000 C   0  0  0  0  0  0  0  0  0  0  0  0
    9.6882   -0.2921    0.0000 C   0  0  0  0  0  0  0  0  0  0  0  0
    8.3893   -1.0421    0.0000 C   0  0  0  0  0  0  0  0  0  0  0  0
    7.0900   -0.2921    0.0000 O   0  0  0  0  0  0  0  0  0  0  0  0
    5.7911   -1.0421    0.0000 C   0  0  0  0  0  0  0  0  0  0  0  0
    5.7911   -2.5421    0.0000 O   0  0  0  0  0  0  0  0  0  0  0  0
    4.4921   -0.2921    0.0000 C   0  0  0  0  0  0  0  0  0  0  0  0
    5.4562    0.8570    0.0000 C   0  0  0  0  0  0  0  0  0  0  0  0
    4.9431    2.2665    0.0000 C   0  0  0  0  0  0  0  0  0  0  0  0
    3.4661    2.5270    0.0000 C   0  0  0  0  0  0  0  0  0  0  0  0
    2.5018    1.3779    0.0000 C   0  0  0  0  0  0  0  0  0  0  0  0
    3.0149   -0.0316    0.0000 C   0  0  0  0  0  0  0  0  0  0  0  0
    3.9790   -1.7016    0.0000 C   0  0  0  0  0  0  0  0  0  0  0  0
    4.7291   -3.0007    0.0000 C   0  0  0  0  0  0  0  0  0  0  0  0
    3.9790   -4.2997    0.0000 C   0  0  0  0  0  0  0  0  0  0  0  0
    2.4791   -4.2997    0.0000 C   0  0  0  0  0  0  0  0  0  0  0  0
    1.7290   -3.0007    0.0000 C   0  0  0  0  0  0  0  0  0  0  0  0
    2.4791   -1.7016    0.0000 C   0  0  0  0  0  0  0  0  0  0  0  0
  1  2  1  0  0  0  0
  2  3  1  0  0  0  0
  3  4  1  0  0  0  0
  3  6  1  0  0  0  0
  4  5  1  0  0  0  0
  6  7  1  0  0  0  0
  7  8  1  0  0  0  0
  8  9  1  0  0  0  0
  9 10  2  0  0  0  0
  9 11  1  0  0  0  0
 12 11  1  0  0  0  0
 11 16  1  0  0  0  0
 11 17  1  0  0  0  0
 13 12  1  0  0  0  0
 14 13  1  0  0  0  0
 15 14  1  0  0  0  0
 16 15  1  0  0  0  0
 18 17  1  0  0  0  0
 17 22  1  0  0  0  0
 19 18  1  0  0  0  0
 20 19  1  0  0  0  0
 21 20  1  0  0  0  0
 22 21  1  0  0  0  0
M  END
> <Inchi_key>
CURUTKGFNZGFSE-UHFFFAOYSA-N

> <Source>
Mulliner , Kotsampasakou

> <ID>
EK0160;HT0651

> <H_MFHB>
0

> <CAS>
67-92-5

> <Cholestasis>
0

> <Name>
dicyclomine;dicycloverine

> <Class>
0


$$$$