

  -INDIGO-08031710012D

 18 19  0  0  0  0  0  0  0  0999 V2000
   -0.5386    5.1814    0.0000 C   0  0  0  0  0  0  0  0  0  0  0  0
    0.0715    3.8110    0.0000 C   0  0  0  0  0  0  0  0  0  0  0  0
    1.5388    3.4992    0.0000 O   0  0  0  0  0  0  0  0  0  0  0  0
    1.6957    2.0074    0.0000 C   0  0  0  0  0  0  0  0  0  0  0  0
    2.9947    1.2574    0.0000 N   0  0  0  0  0  0  0  0  0  0  0  0
    4.2937    2.0074    0.0000 S   0  0  0  0  0  0  0  0  0  0  0  0
    5.0437    0.7083    0.0000 O   0  0  0  0  0  0  0  0  0  0  0  0
    3.5436    3.3064    0.0000 O   0  0  0  0  0  0  0  0  0  0  0  0
    5.5927    2.7574    0.0000 C   0  0  0  0  0  0  0  0  0  0  0  0
    6.8917    2.0074    0.0000 C   0  0  0  0  0  0  0  0  0  0  0  0
    8.1907    2.7574    0.0000 C   0  0  0  0  0  0  0  0  0  0  0  0
    8.1907    4.2574    0.0000 C   0  0  0  0  0  0  0  0  0  0  0  0
    9.4899    5.0074    0.0000 N   0  0  0  0  0  0  0  0  0  0  0  0
    6.8917    5.0074    0.0000 C   0  0  0  0  0  0  0  0  0  0  0  0
    5.5927    4.2574    0.0000 C   0  0  0  0  0  0  0  0  0  0  0  0
    0.3252    1.3973    0.0000 N   0  0  0  0  0  0  0  0  0  0  0  0
   -0.6784    2.5120    0.0000 C   0  0  0  0  0  0  0  0  0  0  0  0
   -2.1701    2.3552    0.0000 C   0  0  0  0  0  0  0  0  0  0  0  0
  1  2  1  0  0  0  0
  3  2  1  0  0  0  0
  2 17  2  0  0  0  0
  4  3  1  0  0  0  0
  4  5  1  0  0  0  0
 16  4  2  0  0  0  0
  5  6  1  0  0  0  0
  6  7  2  0  0  0  0
  6  8  2  0  0  0  0
  6  9  1  0  0  0  0
 10  9  2  0  0  0  0
  9 15  1  0  0  0  0
 11 10  1  0  0  0  0
 12 11  2  0  0  0  0
 12 13  1  0  0  0  0
 14 12  1  0  0  0  0
 15 14  2  0  0  0  0
 17 16  1  0  0  0  0
 17 18  1  0  0  0  0
M  END
> <Inchi_key>
CYFLXLSBHQBMFT-UHFFFAOYSA-N

> <Source>
Mulliner

> <ID>
HT1948

> <H_MFHB>
0

> <CAS>


> <Cholestasis>


> <Name>
sulfamoxole

> <Class>
0


$$$$