
  -INDIGO-08031710012D

 12 11  0  0  0  0  0  0  0  0999 V2000
   -0.4216    2.3236    0.0000 O   0  0  0  0  0  0  0  0  0  0  0  0
    0.8774    1.5736    0.0000 C   0  0  0  0  0  0  0  0  0  0  0  0
    2.1764    2.3236    0.0000 C   0  0  0  0  0  0  0  0  0  0  0  0
    2.1764    3.8236    0.0000 O   0  0  0  0  0  0  0  0  0  0  0  0
    3.4756    1.5736    0.0000 C   0  0  0  0  0  0  0  0  0  0  0  0
    3.4756    0.0736    0.0000 O   0  0  0  0  0  0  0  0  0  0  0  0
    4.7744    2.3236    0.0000 C   0  0  0  0  0  0  0  0  0  0  0  0
    4.7744    3.8236    0.0000 O   0  0  0  0  0  0  0  0  0  0  0  0
    6.0736    1.5736    0.0000 C   0  0  0  0  0  0  0  0  0  0  0  0
    6.0736    0.0736    0.0000 O   0  0  0  0  0  0  0  0  0  0  0  0
    7.3726    2.3236    0.0000 C   0  0  0  0  0  0  0  0  0  0  0  0
    8.6716    1.5736    0.0000 O   0  0  0  0  0  0  0  0  0  0  0  0
  1  2  1  0  0  0  0
  2  3  1  0  0  0  0
  3  4  1  0  0  0  0
  3  5  1  0  0  0  0
  5  6  1  0  0  0  0
  5  7  1  0  0  0  0
  7  8  1  0  0  0  0
  7  9  1  0  0  0  0
  9 10  1  0  0  0  0
  9 11  1  0  0  0  0
 11 12  1  0  0  0  0
M  END
> <Inchi_key>
FBPFZTCFMRRESA-UHFFFAOYSA-N

> <Source>
Mulliner , Kotsampasakou

> <ID>
EK0485;HT1269

> <H_MFHB>
0

> <CAS>
69-65-8

> <Cholestasis>
0

> <Name>
mannitol;sorbitol

> <Class>
0

$$$$