

  -INDIGO-08031710012D

 19 20  0  0  0  0  0  0  0  0999 V2000
    2.5053   -2.2317    0.0000 C   0  0  0  0  0  0  0  0  0  0  0  0
    2.5053   -0.7317    0.0000 C   0  0  0  0  0  0  0  0  0  0  0  0
    3.8042    0.0183    0.0000 C   0  0  0  0  0  0  0  0  0  0  0  0
    5.1032   -0.7317    0.0000 N   0  0  0  0  0  0  0  0  0  0  0  0
    6.4023    0.0183    0.0000 C   0  0  0  0  0  0  0  0  0  0  0  0
    6.4023    1.5183    0.0000 C   0  0  0  0  0  0  0  0  0  0  0  0
    7.7013    2.2683    0.0000 C   0  0  0  0  0  0  0  0  0  0  0  0
    9.0004    1.5183    0.0000 C   0  0  0  0  0  0  0  0  0  0  0  0
    9.0004    0.0183    0.0000 C   0  0  0  0  0  0  0  0  0  0  0  0
    7.7013   -0.7317    0.0000 C   0  0  0  0  0  0  0  0  0  0  0  0
    1.2062    0.0183    0.0000 O   0  0  0  0  0  0  0  0  0  0  0  0
   -0.0930   -0.7317    0.0000 C   0  0  0  0  0  0  0  0  0  0  0  0
   -0.0930   -2.2317    0.0000 O   0  0  0  0  0  0  0  0  0  0  0  0
   -1.3919    0.0183    0.0000 C   0  0  0  0  0  0  0  0  0  0  0  0
   -2.6911   -0.7317    0.0000 C   0  0  0  0  0  0  0  0  0  0  0  0
   -3.9900    0.0183    0.0000 C   0  0  0  0  0  0  0  0  0  0  0  0
   -3.9900    1.5183    0.0000 C   0  0  0  0  0  0  0  0  0  0  0  0
   -2.6911    2.2683    0.0000 C   0  0  0  0  0  0  0  0  0  0  0  0
   -1.3919    1.5183    0.0000 C   0  0  0  0  0  0  0  0  0  0  0  0
  1  2  1  0  0  0  0
  2  3  1  0  0  0  0
  2 11  1  0  0  0  0
  3  4  1  0  0  0  0
  4  5  1  0  0  0  0
  6  5  1  0  0  0  0
  5 10  1  0  0  0  0
  7  6  1  0  0  0  0
  8  7  1  0  0  0  0
  9  8  1  0  0  0  0
 10  9  1  0  0  0  0
 11 12  1  0  0  0  0
 12 13  2  0  0  0  0
 12 14  1  0  0  0  0
 15 14  2  0  0  0  0
 14 19  1  0  0  0  0
 16 15  1  0  0  0  0
 17 16  2  0  0  0  0
 18 17  1  0  0  0  0
 19 18  2  0  0  0  0
M  END
> <Inchi_key>
DKLKMKYDWHYZTD-UHFFFAOYSA-N

> <Source>
Mulliner

> <ID>
HT1034

> <H_MFHB>
0

> <CAS>


> <Cholestasis>


> <Name>
hexylcaine

> <Class>
0


$$$$