

  -INDIGO-08031710012D

 17 18  0  0  0  0  0  0  0  0999 V2000
   10.0223    2.6855    0.0000 C   0  0  0  0  0  0  0  0  0  0  0  0
    8.7232    1.9355    0.0000 O   0  0  0  0  0  0  0  0  0  0  0  0
    7.4242    2.6855    0.0000 C   0  0  0  0  0  0  0  0  0  0  0  0
    6.1251    1.9355    0.0000 C   0  0  0  0  0  0  0  0  0  0  0  0
    4.8261    2.6855    0.0000 C   0  0  0  0  0  0  0  0  0  0  0  0
    4.8261    4.1855    0.0000 C   0  0  0  0  0  0  0  0  0  0  0  0
    3.5272    4.9355    0.0000 C   0  0  0  0  0  0  0  0  0  0  0  0
    3.5272    6.4355    0.0000 O   0  0  0  0  0  0  0  0  0  0  0  0
    2.2281    4.1855    0.0000 C   0  0  0  0  0  0  0  0  0  0  0  0
    2.2281    2.6855    0.0000 C   0  0  0  0  0  0  0  0  0  0  0  0
    0.9291    1.9355    0.0000 C   0  0  0  0  0  0  0  0  0  0  0  0
   -0.3700    2.6855    0.0000 C   0  0  0  0  0  0  0  0  0  0  0  0
   -0.3700    4.1855    0.0000 C   0  0  0  0  0  0  0  0  0  0  0  0
    0.9291    4.9355    0.0000 C   0  0  0  0  0  0  0  0  0  0  0  0
    6.1251    4.9355    0.0000 C   0  0  0  0  0  0  0  0  0  0  0  0
    6.1251    6.4355    0.0000 O   0  0  0  0  0  0  0  0  0  0  0  0
    7.4242    4.1855    0.0000 C   0  0  0  0  0  0  0  0  0  0  0  0
  1  2  1  0  0  0  0
  2  3  1  0  0  0  0
  4  3  2  0  0  0  0
  3 17  1  0  0  0  0
  5  4  1  0  0  0  0
  6  5  2  0  0  0  0
  6  7  1  0  0  0  0
 15  6  1  0  0  0  0
  7  8  2  0  0  0  0
  7  9  1  0  0  0  0
 10  9  2  0  0  0  0
  9 14  1  0  0  0  0
 11 10  1  0  0  0  0
 12 11  2  0  0  0  0
 13 12  1  0  0  0  0
 14 13  2  0  0  0  0
 15 16  1  0  0  0  0
 17 15  2  0  0  0  0
M  END
> <Inchi_key>
DXGLGDHPHMLXJC-UHFFFAOYSA-N

> <Source>
Mulliner

> <ID>
HT1563

> <H_MFHB>
0

> <CAS>
131-57-7

> <Cholestasis>


> <Name>
oxybenzone

> <Class>
0


$$$$