

  -INDIGO-08031710012D

 50 53  0  0  0  0  0  0  0  0999 V2000
    3.8071    2.6213    0.0000 C   0  0  0  0  0  0  0  0  0  0  0  0
    5.1064    1.8713    0.0000 O   0  0  0  0  0  0  0  0  0  0  0  0
    5.1064    0.3712    0.0000 C   0  0  0  0  0  0  0  0  0  0  0  0
    3.8071   -0.3787    0.0000 C   0  0  0  0  0  0  0  0  0  0  0  0
    2.5081    0.3712    0.0000 O   0  0  0  0  0  0  0  0  0  0  0  0
    3.8071   -1.8786    0.0000 C   0  0  0  0  0  0  0  0  0  0  0  0
    2.5081   -2.6286    0.0000 O   0  0  0  0  0  0  0  0  0  0  0  0
    5.1064   -2.6286    0.0000 C   0  0  0  0  0  0  0  0  0  0  0  0
    5.1064   -4.1287    0.0000 O   0  0  0  0  0  0  0  0  0  0  0  0
    6.4054   -4.8787    0.0000 C   0  0  0  0  0  0  0  0  0  0  0  0
    6.4054   -6.3788    0.0000 C   0  0  0  0  0  0  0  0  0  0  0  0
    5.1064   -7.1288    0.0000 O   0  0  0  0  0  0  0  0  0  0  0  0
    5.1064   -8.6287    0.0000 C   0  0  0  0  0  0  0  0  0  0  0  0
    3.8071   -9.3786    0.0000 O   0  0  0  0  0  0  0  0  0  0  0  0
    2.5081   -8.6287    0.0000 C   0  0  0  0  0  0  0  0  0  0  0  0
    2.5081   -7.1288    0.0000 C   0  0  0  0  0  0  0  0  0  0  0  0
    3.8071   -6.3788    0.0000 O   0  0  0  0  0  0  0  0  0  0  0  0
    1.2091   -6.3788    0.0000 C   0  0  0  0  0  0  0  0  0  0  0  0
    1.2091   -4.8787    0.0000 O   0  0  0  0  0  0  0  0  0  0  0  0
   -0.0899   -7.1288    0.0000 C   0  0  0  0  0  0  0  0  0  0  0  0
   -1.3889   -6.3788    0.0000 C   0  0  0  0  0  0  0  0  0  0  0  0
   -0.0899   -8.6287    0.0000 O   0  0  0  0  0  0  0  0  0  0  0  0
    1.2091   -9.3786    0.0000 C   0  0  0  0  0  0  0  0  0  0  0  0
    1.2091  -10.8787    0.0000 C   0  0  0  0  0  0  0  0  0  0  0  0
   -0.0899  -11.6287    0.0000 O   0  0  0  0  0  0  0  0  0  0  0  0
    6.4054   -9.3786    0.0000 C   0  0  0  0  0  0  0  0  0  0  0  0
    6.4054  -10.8787    0.0000 O   0  0  0  0  0  0  0  0  0  0  0  0
    7.7044   -8.6287    0.0000 C   0  0  0  0  0  0  0  0  0  0  0  0
    9.0033   -9.3786    0.0000 O   0  0  0  0  0  0  0  0  0  0  0  0
    7.7044   -7.1288    0.0000 C   0  0  0  0  0  0  0  0  0  0  0  0
    9.0033   -6.3788    0.0000 O   0  0  0  0  0  0  0  0  0  0  0  0
   10.3023   -7.1288    0.0000 C   0  0  0  0  0  0  0  0  0  0  0  0
   10.3023   -8.6287    0.0000 O   0  0  0  0  0  0  0  0  0  0  0  0
   11.6013   -9.3786    0.0000 C   0  0  0  0  0  0  0  0  0  0  0  0
   11.6013  -10.8787    0.0000 C   0  0  0  0  0  0  0  0  0  0  0  0
   12.9006  -11.6287    0.0000 O   0  0  0  0  0  0  0  0  0  0  0  0
   12.9006   -8.6287    0.0000 C   0  0  0  0  0  0  0  0  0  0  0  0
   14.1996   -9.3786    0.0000 O   0  0  0  0  0  0  0  0  0  0  0  0
   15.4986   -8.6287    0.0000 C   0  0  0  0  0  0  0  0  0  0  0  0
   12.9006   -7.1288    0.0000 C   0  0  0  0  0  0  0  0  0  0  0  0
   14.1996   -6.3788    0.0000 O   0  0  0  0  0  0  0  0  0  0  0  0
   11.6013   -6.3788    0.0000 C   0  0  0  0  0  0  0  0  0  0  0  0
   11.6013   -4.8787    0.0000 O   0  0  0  0  0  0  0  0  0  0  0  0
   12.9006   -4.1287    0.0000 C   0  0  0  0  0  0  0  0  0  0  0  0
   12.9006   -2.6286    0.0000 C   0  0  0  0  0  0  0  0  0  0  0  0
   14.1996   -1.8786    0.0000 O   0  0  0  0  0  0  0  0  0  0  0  0
    6.4054   -1.8786    0.0000 O   0  0  0  0  0  0  0  0  0  0  0  0
    6.4054   -0.3787    0.0000 C   0  0  0  0  0  0  0  0  0  0  0  0
    7.7044    0.3712    0.0000 C   0  0  0  0  0  0  0  0  0  0  0  0
    7.7044    1.8713    0.0000 O   0  0  0  0  0  0  0  0  0  0  0  0
  1  2  1  0  0  0  0
  2  3  1  0  0  0  0
  4  3  1  0  0  0  0
  3 48  1  0  0  0  0
  4  5  1  0  0  0  0
  6  4  1  0  0  0  0
  6  7  1  0  0  0  0
  8  6  1  0  0  0  0
  8  9  1  0  0  0  0
 47  8  1  0  0  0  0
  9 10  1  0  0  0  0
 10 11  1  0  0  0  0
 12 11  1  0  0  0  0
 11 30  1  0  0  0  0
 13 12  1  0  0  0  0
 13 14  1  0  0  0  0
 26 13  1  0  0  0  0
 14 15  1  0  0  0  0
 16 15  1  0  0  0  0
 15 23  1  0  0  0  0
 16 17  1  0  0  0  0
 18 16  1  0  0  0  0
 18 19  1  0  0  0  0
 20 18  1  0  0  0  0
 20 21  1  0  0  0  0
 22 20  1  0  0  0  0
 23 22  1  0  0  0  0
 23 24  1  0  0  0  0
 24 25  1  0  0  0  0
 26 27  1  0  0  0  0
 28 26  1  0  0  0  0
 28 29  1  0  0  0  0
 30 28  1  0  0  0  0
 30 31  1  0  0  0  0
 31 32  1  0  0  0  0
 33 32  1  0  0  0  0
 32 42  1  0  0  0  0
 34 33  1  0  0  0  0
 34 35  1  0  0  0  0
 37 34  1  0  0  0  0
 35 36  1  0  0  0  0
 37 38  1  0  0  0  0
 40 37  1  0  0  0  0
 38 39  1  0  0  0  0
 40 41  1  0  0  0  0
 42 40  1  0  0  0  0
 42 43  1  0  0  0  0
 43 44  1  0  0  0  0
 44 45  1  0  0  0  0
 45 46  1  0  0  0  0
 48 47  1  0  0  0  0
 48 49  1  0  0  0  0
 49 50  1  0  0  0  0
M  END
> <Inchi_key>
CWSZBVAUYPTXTG-UHFFFAOYSA-N

> <Source>
Mulliner

> <ID>
HT1028

> <H_MFHB>
0

> <CAS>


> <Cholestasis>


> <Name>
hetastarch

> <Class>
0


$$$$