
  -INDIGO-08031710012D

 29 28  0  0  0  0  0  0  0  0999 V2000
   18.1552   10.4819    0.0000 C   0  0  0  0  0  0  0  0  0  0  0  0
   17.4053    9.1830    0.0000 C   0  0  0  0  0  0  0  0  0  0  0  0
   15.9051    9.1830    0.0000 C   0  0  0  0  0  0  0  0  0  0  0  0
   15.1552    7.8839    0.0000 C   0  0  0  0  0  0  0  0  0  0  0  0
   13.6553    7.8839    0.0000 C   0  0  0  0  0  0  0  0  0  0  0  0
   12.9051    6.5848    0.0000 C   0  0  0  0  0  0  0  0  0  0  0  0
   13.6553    5.2857    0.0000 C   0  0  0  0  0  0  0  0  0  0  0  0
   12.9051    3.9867    0.0000 C   0  0  0  0  0  0  0  0  0  0  0  0
   11.4052    6.5848    0.0000 C   0  0  0  0  0  0  0  0  0  0  0  0
   10.6553    7.8839    0.0000 O   0  0  0  0  0  0  0  0  0  0  0  0
    9.1551    7.8839    0.0000 C   0  0  0  0  0  0  0  0  0  0  0  0
    8.4052    6.5848    0.0000 O   0  0  0  0  0  0  0  0  0  0  0  0
    8.4052    9.1830    0.0000 C   0  0  0  0  0  0  0  0  0  0  0  0
    6.9053    9.1830    0.0000 C   0  0  0  0  0  0  0  0  0  0  0  0
    6.1551    7.8839    0.0000 C   0  0  0  0  0  0  0  0  0  0  0  0
    6.9053    6.5848    0.0000 O   0  0  0  0  0  0  0  0  0  0  0  0
    4.6552    7.8839    0.0000 O   0  0  0  0  0  0  0  0  0  0  0  0
    3.9053    6.5848    0.0000 C   0  0  0  0  0  0  0  0  0  0  0  0
    2.4051    6.5848    0.0000 C   0  0  0  0  0  0  0  0  0  0  0  0
    1.6552    7.8839    0.0000 C   0  0  0  0  0  0  0  0  0  0  0  0
    0.1553    7.8839    0.0000 C   0  0  0  0  0  0  0  0  0  0  0  0
    1.6552    5.2857    0.0000 C   0  0  0  0  0  0  0  0  0  0  0  0
    0.1553    5.2857    0.0000 C   0  0  0  0  0  0  0  0  0  0  0  0
   -0.5949    3.9867    0.0000 C   0  0  0  0  0  0  0  0  0  0  0  0
   -2.0948    3.9867    0.0000 C   0  0  0  0  0  0  0  0  0  0  0  0
    6.1551   10.4819    0.0000 S   0  0  0  0  0  0  0  0  0  0  0  0
    7.4541   11.2319    0.0000 O   0  0  0  0  0  0  0  0  0  0  0  0
    4.8560    9.7319    0.0000 O   0  0  0  0  0  0  0  0  0  0  0  0
    5.4051   11.7809    0.0000 O   0  0  0  0  0  0  0  0  0  0  0  0
  1  2  1  0  0  0  0
  2  3  1  0  0  0  0
  3  4  1  0  0  0  0
  4  5  1  0  0  0  0
  5  6  1  0  0  0  0
  6  7  1  0  0  0  0
  6  9  1  0  0  0  0
  7  8  1  0  0  0  0
  9 10  1  0  0  0  0
 10 11  1  0  0  0  0
 11 12  2  0  0  0  0
 11 13  1  0  0  0  0
 13 14  1  0  0  0  0
 14 15  1  0  0  0  0
 14 26  1  0  0  0  0
 15 16  2  0  0  0  0
 15 17  1  0  0  0  0
 17 18  1  0  0  0  0
 18 19  1  0  0  0  0
 19 20  1  0  0  0  0
 19 22  1  0  0  0  0
 20 21  1  0  0  0  0
 22 23  1  0  0  0  0
 23 24  1  0  0  0  0
 24 25  1  0  0  0  0
 26 27  2  0  0  0  0
 26 28  2  0  0  0  0
 26 29  1  0  0  0  0
M  END
> <Inchi_key>
DLCUIMBBDXFXRB-UHFFFAOYSA-N

> <Source>
Mulliner

> <ID>
HT2261

> <H_MFHB>
0

> <CAS>


> <Cholestasis>


> <Name>


> <Class>
0

$$$$