
  -INDIGO-08031710012D

  5  4  0  0  0  0  0  0  0  0999 V2000
    3.8785   -1.0392    0.0000 N   0  0  0  0  0  0  0  0  0  0  0  0
    2.5794   -1.7892    0.0000 C   0  0  0  0  0  0  0  0  0  0  0  0
    1.2804   -1.0392    0.0000 C   0  0  0  0  0  0  0  0  0  0  0  0
   -0.0187   -1.7892    0.0000 O   0  0  0  0  0  0  0  0  0  0  0  0
    1.2804    0.4608    0.0000 O   0  0  0  0  0  0  0  0  0  0  0  0
  1  2  1  0  0  0  0
  2  3  1  0  0  0  0
  3  4  2  0  0  0  0
  3  5  1  0  0  0  0
M  END
> <Inchi_key>
DHMQDGOQFOQNFH-UHFFFAOYSA-N

> <Source>
Mulliner , Kotsampasakou

> <ID>
EK0247;HT0997

> <H_MFHB>
0

> <CAS>


> <Cholestasis>
0

> <Name>
glycine

> <Class>
0

$$$$