

  -INDIGO-08031710012D

 23 26  0  0  0  0  0  0  0  0999 V2000
   -1.5413   -2.3878    0.0000 C   0  0  0  0  0  0  0  0  0  0  0  0
   -0.9235   -3.7547    0.0000 C   0  0  0  0  0  0  0  0  0  0  0  0
   -1.6664   -5.0579    0.0000 N   0  0  0  0  0  0  0  0  0  0  0  0
   -0.6566   -6.1671    0.0000 C   0  0  0  0  0  0  0  0  0  0  0  0
    0.7104   -5.5494    0.0000 C   0  0  0  0  0  0  0  0  0  0  0  0
    1.9785   -6.3505    0.0000 C   0  0  0  0  0  0  0  0  0  0  0  0
    3.3957   -5.8593    0.0000 N   0  0  0  0  0  0  0  0  0  0  0  0
    3.8962   -4.4453    0.0000 C   0  0  0  0  0  0  0  0  0  0  0  0
    5.3871   -4.2814    0.0000 C   0  0  0  0  0  0  0  0  0  0  0  0
    5.9907   -2.9084    0.0000 C   0  0  0  0  0  0  0  0  0  0  0  0
    7.4818   -2.7445    0.0000 C   0  0  0  0  0  0  0  0  0  0  0  0
    8.3692   -3.9539    0.0000 C   0  0  0  0  0  0  0  0  0  0  0  0
    7.7655   -5.3271    0.0000 C   0  0  0  0  0  0  0  0  0  0  0  0
    6.2743   -5.4908    0.0000 C   0  0  0  0  0  0  0  0  0  0  0  0
    5.6707   -6.8640    0.0000 F   0  0  0  0  0  0  0  0  0  0  0  0
    3.0996   -3.1733    0.0000 C   0  0  0  0  0  0  0  0  0  0  0  0
    3.9934   -1.9687    0.0000 C   0  0  0  0  0  0  0  0  0  0  0  0
    3.3973   -0.5922    0.0000 C   0  0  0  0  0  0  0  0  0  0  0  0
    4.2913    0.6123    0.0000 Cl  0  0  0  0  0  0  0  0  0  0  0  0
    1.9073   -0.4202    0.0000 C   0  0  0  0  0  0  0  0  0  0  0  0
    1.0131   -1.6248    0.0000 C   0  0  0  0  0  0  0  0  0  0  0  0
    1.6094   -3.0012    0.0000 C   0  0  0  0  0  0  0  0  0  0  0  0
    0.5453   -4.0585    0.0000 N   0  0  0  0  0  0  0  0  0  0  0  0
  1  2  1  0  0  0  0
  3  2  2  0  0  0  0
  2 23  1  0  0  0  0
  4  3  1  0  0  0  0
  5  4  2  0  0  0  0
  6  5  1  0  0  0  0
  5 23  1  0  0  0  0
  7  6  1  0  0  0  0
  8  7  2  0  0  0  0
  8  9  1  0  0  0  0
 16  8  1  0  0  0  0
 10  9  2  0  0  0  0
  9 14  1  0  0  0  0
 11 10  1  0  0  0  0
 12 11  2  0  0  0  0
 13 12  1  0  0  0  0
 14 13  2  0  0  0  0
 14 15  1  0  0  0  0
 17 16  1  0  0  0  0
 16 22  2  0  0  0  0
 18 17  2  0  0  0  0
 18 19  1  0  0  0  0
 20 18  1  0  0  0  0
 21 20  2  0  0  0  0
 22 21  1  0  0  0  0
 23 22  1  0  0  0  0
M  END
> <Inchi_key>
DDLIGBOFAVUZHB-UHFFFAOYSA-N

> <Source>
Mulliner , Kotsampasakou

> <ID>
EK0350;HT1394

> <H_MFHB>
0

> <CAS>
59467-96-8;59467-70-8

> <Cholestasis>
0

> <Name>
midazolam hydrochloride;midazolam

> <Class>
0


$$$$