
  -INDIGO-08031710012D

 38 42  0  0  0  0  0  0  0  0999 V2000
    5.3680    0.8933    0.0000 C   0  0  0  0  0  0  0  0  0  0  0  0
    5.8486   -0.5275    0.0000 C   0  0  0  0  0  0  0  0  0  0  0  0
    7.3194   -0.8220    0.0000 C   0  0  0  0  0  0  0  0  0  0  0  0
    8.4221    0.1949    0.0000 N   0  0  0  0  0  0  0  0  0  0  0  0
    9.7301   -0.5396    0.0000 C   0  0  0  0  0  0  0  0  0  0  0  0
   11.0929    0.0866    0.0000 C   0  0  0  0  0  0  0  0  0  0  0  0
   12.5865   -0.0524    0.0000 C   0  0  0  0  0  0  0  0  0  0  0  0
   11.9600    1.3107    0.0000 C   0  0  0  0  0  0  0  0  0  0  0  0
    9.4357   -2.0105    0.0000 C   0  0  0  0  0  0  0  0  0  0  0  0
   10.4526   -3.1132    0.0000 C   0  0  0  0  0  0  0  0  0  0  0  0
   10.0059   -4.5451    0.0000 O   0  0  0  0  0  0  0  0  0  0  0  0
   11.9160   -2.7839    0.0000 N   0  0  0  0  0  0  0  0  0  0  0  0
    7.9459   -2.1850    0.0000 N   0  0  0  0  0  0  0  0  0  0  0  0
    7.2113   -3.4930    0.0000 C   0  0  0  0  0  0  0  0  0  0  0  0
    5.7114   -3.5107    0.0000 C   0  0  0  0  0  0  0  0  0  0  0  0
    4.9460   -2.2207    0.0000 C   0  0  0  0  0  0  0  0  0  0  0  0
    3.4461   -2.2385    0.0000 C   0  0  0  0  0  0  0  0  0  0  0  0
    2.7115   -3.5465    0.0000 C   0  0  0  0  0  0  0  0  0  0  0  0
    1.2481   -3.8757    0.0000 O   0  0  0  0  0  0  0  0  0  0  0  0
    1.1090   -5.3691    0.0000 C   0  0  0  0  0  0  0  0  0  0  0  0
    2.4866   -5.9630    0.0000 C   0  0  0  0  0  0  0  0  0  0  0  0
    2.8159   -7.4264    0.0000 Br  0  0  0  0  0  0  0  0  0  0  0  0
    3.4771   -4.8365    0.0000 C   0  0  0  0  0  0  0  0  0  0  0  0
    4.9768   -4.8185    0.0000 C   0  0  0  0  0  0  0  0  0  0  0  0
   -0.1809   -6.1346    0.0000 C   0  0  0  0  0  0  0  0  0  0  0  0
   -0.1631   -7.6344    0.0000 C   0  0  0  0  0  0  0  0  0  0  0  0
   -1.4530   -8.3999    0.0000 C   0  0  0  0  0  0  0  0  0  0  0  0
   -2.7610   -7.6654    0.0000 C   0  0  0  0  0  0  0  0  0  0  0  0
   -2.7789   -6.1654    0.0000 C   0  0  0  0  0  0  0  0  0  0  0  0
   -1.4887   -5.4001    0.0000 C   0  0  0  0  0  0  0  0  0  0  0  0
   -1.5066   -3.9001    0.0000 N   0  0  0  0  0  0  0  0  0  0  0  0
   -2.8144   -3.1656    0.0000 S   0  0  0  0  0  0  0  0  0  0  0  0
   -2.0801   -1.8579    0.0000 O   0  0  0  0  0  0  0  0  0  0  0  0
   -3.5489   -4.4736    0.0000 O   0  0  0  0  0  0  0  0  0  0  0  0
   -4.1224   -2.4311    0.0000 C   0  0  0  0  0  0  0  0  0  0  0  0
   -4.8567   -3.7391    0.0000 F   0  0  0  0  0  0  0  0  0  0  0  0
   -3.3878   -1.1234    0.0000 F   0  0  0  0  0  0  0  0  0  0  0  0
   -5.4302   -1.6966    0.0000 F   0  0  0  0  0  0  0  0  0  0  0  0
  1  2  1  0  0  0  0
  2  3  1  0  0  0  0
  4  3  2  0  0  0  0
  3 13  1  0  0  0  0
  5  4  1  0  0  0  0
  5  6  1  0  0  0  0
  9  5  2  0  0  0  0
  7  6  1  0  0  0  0
  6  8  1  0  0  0  0
  8  7  1  0  0  0  0
  9 10  1  0  0  0  0
 13  9  1  0  0  0  0
 10 11  2  0  0  0  0
 10 12  1  0  0  0  0
 13 14  1  0  0  0  0
 14 15  1  0  0  0  0
 16 15  2  0  0  0  0
 15 24  1  0  0  0  0
 17 16  1  0  0  0  0
 18 17  2  0  0  0  0
 19 18  1  0  0  0  0
 18 23  1  0  0  0  0
 20 19  1  0  0  0  0
 21 20  2  0  0  0  0
 20 25  1  0  0  0  0
 21 22  1  0  0  0  0
 23 21  1  0  0  0  0
 24 23  2  0  0  0  0
 26 25  2  0  0  0  0
 25 30  1  0  0  0  0
 27 26  1  0  0  0  0
 28 27  2  0  0  0  0
 29 28  1  0  0  0  0
 30 29  2  0  0  0  0
 30 31  1  0  0  0  0
 31 32  1  0  0  0  0
 32 33  2  0  0  0  0
 32 34  2  0  0  0  0
 32 35  1  0  0  0  0
 35 36  1  0  0  0  0
 35 37  1  0  0  0  0
 35 38  1  0  0  0  0
M  END
> <Inchi_key>
DUEWVPTZCSAMNB-UHFFFAOYSA-N

> <Source>
Mulliner

> <ID>
HT1866

> <H_MFHB>
0

> <CAS>


> <Cholestasis>


> <Name>
saprisartan

> <Class>
0

$$$$