

  -INDIGO-08031710012D

 10 11  0  0  0  0  0  0  0  0999 V2000
   -4.8125   -2.2948    0.0000 C   0  0  0  0  0  0  0  0  0  0  0  0
   -3.8343   -3.4320    0.0000 C   0  0  0  0  0  0  0  0  0  0  0  0
   -2.3353   -3.3770    0.0000 C   0  0  0  0  0  0  0  0  0  0  0  0
   -1.4453   -2.1696    0.0000 C   0  0  0  0  0  0  0  0  0  0  0  0
    0.0527   -2.2480    0.0000 N   0  0  0  0  0  0  0  0  0  0  0  0
    0.5902   -0.8476    0.0000 N   0  0  0  0  0  0  0  0  0  0  0  0
   -0.5756    0.0963    0.0000 N   0  0  0  0  0  0  0  0  0  0  0  0
   -1.8335   -0.7207    0.0000 N   0  0  0  0  0  0  0  0  0  0  0  0
   -3.2085   -0.1190    0.0000 C   0  0  0  0  0  0  0  0  0  0  0  0
   -4.5341   -0.8209    0.0000 C   0  0  0  0  0  0  0  0  0  0  0  0
  2  1  1  0  0  0  0
  1 10  1  0  0  0  0
  3  2  1  0  0  0  0
  4  3  1  0  0  0  0
  5  4  2  0  0  0  0
  4  8  1  0  0  0  0
  6  5  1  0  0  0  0
  7  6  2  0  0  0  0
  8  7  1  0  0  0  0
  9  8  1  0  0  0  0
 10  9  1  0  0  0  0
M  END
> <Inchi_key>
CWRVKFFCRWGWCS-UHFFFAOYSA-N

> <Source>
Mulliner

> <ID>
HT1622

> <H_MFHB>
0

> <CAS>


> <Cholestasis>


> <Name>
pentetrazol

> <Class>
0


$$$$