

  -INDIGO-08031710012D

 35 37  0  0  0  0  0  0  0  0999 V2000
    0.5626   -6.2185    0.0000 C   0  0  0  0  0  0  0  0  0  0  0  0
    1.1618   -4.8436    0.0000 C   0  0  0  0  0  0  0  0  0  0  0  0
    2.6480   -4.7605    0.0000 C   0  0  0  0  0  0  0  0  0  0  0  0
    3.4560   -6.0335    0.0000 C   0  0  0  0  0  0  0  0  0  0  0  0
    4.9544   -5.9758    0.0000 C   0  0  0  0  0  0  0  0  0  0  0  0
    5.6592   -4.6672    0.0000 C   0  0  0  0  0  0  0  0  0  0  0  0
    4.8291   -3.4179    0.0000 C   0  0  0  0  0  0  0  0  0  0  0  0
    6.5059   -5.9085    0.0000 O   0  0  0  0  0  0  0  0  0  0  0  0
    7.1601   -4.5615    0.0000 C   0  0  0  0  0  0  0  0  0  0  0  0
    7.7224   -3.1337    0.0000 C   0  0  0  0  0  0  0  0  0  0  0  0
    6.7025   -2.0399    0.0000 C   0  0  0  0  0  0  0  0  0  0  0  0
    7.0571   -0.5877    0.0000 N   0  0  0  0  0  0  0  0  0  0  0  0
    5.8675    0.3823    0.0000 C   0  0  0  0  0  0  0  0  0  0  0  0
    6.0466    1.8715    0.0000 O   0  0  0  0  0  0  0  0  0  0  0  0
    4.5070   -0.2666    0.0000 C   0  0  0  0  0  0  0  0  0  0  0  0
    3.2579    0.5444    0.0000 C   0  0  0  0  0  0  0  0  0  0  0  0
    3.3390    2.0422    0.0000 O   0  0  0  0  0  0  0  0  0  0  0  0
    1.9186   -0.1320    0.0000 C   0  0  0  0  0  0  0  0  0  0  0  0
    1.1898    1.1790    0.0000 C   0  0  0  0  0  0  0  0  0  0  0  0
    0.4195   -0.0829    0.0000 C   0  0  0  0  0  0  0  0  0  0  0  0
    1.8318   -1.6375    0.0000 C   0  0  0  0  0  0  0  0  0  0  0  0
    3.0814   -2.4675    0.0000 O   0  0  0  0  0  0  0  0  0  0  0  0
    0.4951   -2.2923    0.0000 C   0  0  0  0  0  0  0  0  0  0  0  0
   -0.7005   -1.3864    0.0000 C   0  0  0  0  0  0  0  0  0  0  0  0
    0.2324   -3.7238    0.0000 C   0  0  0  0  0  0  0  0  0  0  0  0
   -1.2188   -4.1033    0.0000 O   0  0  0  0  0  0  0  0  0  0  0  0
    7.9364   -1.1871    0.0000 C   0  0  0  0  0  0  0  0  0  0  0  0
    9.2921   -1.8293    0.0000 C   0  0  0  0  0  0  0  0  0  0  0  0
    9.7965   -3.2419    0.0000 C   0  0  0  0  0  0  0  0  0  0  0  0
   11.2872   -3.4078    0.0000 C   0  0  0  0  0  0  0  0  0  0  0  0
   11.5902   -4.8769    0.0000 S   0  0  0  0  0  0  0  0  0  0  0  0
   10.2865   -5.6190    0.0000 C   0  0  0  0  0  0  0  0  0  0  0  0
   10.1208   -7.1098    0.0000 C   0  0  0  0  0  0  0  0  0  0  0  0
    9.1779   -4.6085    0.0000 N   0  0  0  0  0  0  0  0  0  0  0  0
    7.8148    0.3080    0.0000 C   0  0  0  0  0  0  0  0  0  0  0  0
  1  2  1  0  0  0  0
  3  2  1  0  0  0  0
  2 25  1  0  0  0  0
  4  3  1  0  0  0  0
  5  4  1  0  0  0  0
  6  5  1  0  0  0  0
  6  7  1  0  0  0  0
  8  6  1  0  0  0  0
  6  9  1  0  0  0  0
  9  8  1  0  0  0  0
 10  9  1  0  0  0  0
 11 10  1  0  0  0  0
 12 11  1  0  0  0  0
 11 27  1  0  0  0  0
 13 12  1  0  0  0  0
 13 14  2  0  0  0  0
 15 13  1  0  0  0  0
 16 15  1  0  0  0  0
 16 17  1  0  0  0  0
 18 16  1  0  0  0  0
 18 19  1  0  0  0  0
 18 20  1  0  0  0  0
 21 18  1  0  0  0  0
 21 22  2  0  0  0  0
 23 21  1  0  0  0  0
 23 24  1  0  0  0  0
 25 23  1  0  0  0  0
 25 26  1  0  0  0  0
 27 28  2  0  0  0  0
 27 35  1  0  0  0  0
 28 29  1  0  0  0  0
 30 29  2  0  0  0  0
 29 34  1  0  0  0  0
 31 30  1  0  0  0  0
 32 31  1  0  0  0  0
 32 33  1  0  0  0  0
 34 32  2  0  0  0  0
M  END
> <Inchi_key>
FABUFPQFXZVHFB-WJDWOHSUSA-N

> <Source>
Mulliner

> <ID>
HT1152

> <H_MFHB>
0

> <CAS>


> <Cholestasis>


> <Name>
ixabepilone

> <Class>
0


$$$$