

  -INDIGO-08031710012D

 13 13  0  0  0  0  0  0  0  0999 V2000
    8.4774    2.2715    0.0000 C   0  0  0  0  0  0  0  0  0  0  0  0
    7.1784    1.5215    0.0000 C   0  0  0  0  0  0  0  0  0  0  0  0
    5.8795    2.2715    0.0000 N   0  0  0  0  0  0  0  0  0  0  0  0
    6.6294    3.5706    0.0000 C   0  0  0  0  0  0  0  0  0  0  0  0
    5.1293    0.9725    0.0000 C   0  0  0  0  0  0  0  0  0  0  0  0
    4.5804    3.0215    0.0000 C   0  0  0  0  0  0  0  0  0  0  0  0
    3.2813    2.2715    0.0000 C   0  0  0  0  0  0  0  0  0  0  0  0
    3.2813    0.7715    0.0000 C   0  0  0  0  0  0  0  0  0  0  0  0
    1.9822    0.0215    0.0000 C   0  0  0  0  0  0  0  0  0  0  0  0
    0.6832    0.7715    0.0000 C   0  0  0  0  0  0  0  0  0  0  0  0
    0.6832    2.2715    0.0000 C   0  0  0  0  0  0  0  0  0  0  0  0
    1.9822    3.0215    0.0000 C   0  0  0  0  0  0  0  0  0  0  0  0
    1.9822    4.5215    0.0000 Br  0  0  0  0  0  0  0  0  0  0  0  0
  1  2  1  0  0  0  0
  2  3  1  0  0  0  0
  3  4  1  0  0  0  0
  3  5  1  0  0  0  0
  3  6  1  0  0  0  0
  6  7  1  0  0  0  0
  8  7  2  0  0  0  0
  7 12  1  0  0  0  0
  9  8  1  0  0  0  0
 10  9  2  0  0  0  0
 11 10  1  0  0  0  0
 12 11  2  0  0  0  0
 12 13  1  0  0  0  0
M  CHG  1   3   1
M  END
> <Inchi_key>
AAQOQKQBGPPFNS-UHFFFAOYSA-N

> <Source>
Mulliner

> <ID>
HT0303

> <H_MFHB>
0

> <CAS>


> <Cholestasis>


> <Name>
bretylium

> <Class>
0


$$$$