
  -INDIGO-08031710012D

 35 38  0  0  0  0  0  0  0  0999 V2000
    8.7436    3.9613    0.0000 O   0  0  0  0  0  0  0  0  0  0  0  0
    8.7747    5.4610    0.0000 C   0  0  0  0  0  0  0  0  0  0  0  0
    7.4917    6.2379    0.0000 C   0  0  0  0  0  0  0  0  0  0  0  0
    7.5228    7.7376    0.0000 O   0  0  0  0  0  0  0  0  0  0  0  0
    6.1772    5.5151    0.0000 N   0  0  0  0  0  0  0  0  0  0  0  0
    4.8939    6.2920    0.0000 C   0  0  0  0  0  0  0  0  0  0  0  0
    3.4373    5.9340    0.0000 C   0  0  0  0  0  0  0  0  0  0  0  0
    2.3548    4.8956    0.0000 S   0  0  0  0  0  0  0  0  0  0  0  0
    0.9145    5.3140    0.0000 C   0  0  0  0  0  0  0  0  0  0  0  0
    0.5563    6.7706    0.0000 C   0  0  0  0  0  0  0  0  0  0  0  0
    1.6389    7.8090    0.0000 C   0  0  0  0  0  0  0  0  0  0  0  0
    3.0794    7.3907    0.0000 N   0  0  0  0  0  0  0  0  0  0  0  0
    4.5360    7.7488    0.0000 C   0  0  0  0  0  0  0  0  0  0  0  0
    5.3129    9.0318    0.0000 O   0  0  0  0  0  0  0  0  0  0  0  0
    1.2809    9.2657    0.0000 C   0  0  0  0  0  0  0  0  0  0  0  0
    2.3635   10.3040    0.0000 O   0  0  0  0  0  0  0  0  0  0  0  0
   -0.1596    9.6839    0.0000 O   0  0  0  0  0  0  0  0  0  0  0  0
   -0.8842    7.1890    0.0000 C   0  0  0  0  0  0  0  0  0  0  0  0
   -1.9665    6.1506    0.0000 S   0  0  0  0  0  0  0  0  0  0  0  0
   -3.4071    6.5690    0.0000 C   0  0  0  0  0  0  0  0  0  0  0  0
   -3.9153    7.9801    0.0000 N   0  0  0  0  0  0  0  0  0  0  0  0
   -5.4147    7.9329    0.0000 N   0  0  0  0  0  0  0  0  0  0  0  0
   -5.8328    6.4925    0.0000 N   0  0  0  0  0  0  0  0  0  0  0  0
   -4.5921    5.6494    0.0000 N   0  0  0  0  0  0  0  0  0  0  0  0
   -4.5450    4.1502    0.0000 C   0  0  0  0  0  0  0  0  0  0  0  0
   -5.8198    3.3595    0.0000 S   0  0  0  0  0  0  0  0  0  0  0  0
   -6.6104    4.6343    0.0000 O   0  0  0  0  0  0  0  0  0  0  0  0
   -5.0290    2.0848    0.0000 O   0  0  0  0  0  0  0  0  0  0  0  0
   -7.0944    2.5690    0.0000 O   0  0  0  0  0  0  0  0  0  0  0  0
   10.0892    6.1838    0.0000 C   0  0  0  0  0  0  0  0  0  0  0  0
   10.1203    7.6835    0.0000 C   0  0  0  0  0  0  0  0  0  0  0  0
   11.4348    8.4063    0.0000 C   0  0  0  0  0  0  0  0  0  0  0  0
   12.7178    7.6294    0.0000 C   0  0  0  0  0  0  0  0  0  0  0  0
   12.6867    6.1297    0.0000 C   0  0  0  0  0  0  0  0  0  0  0  0
   11.3722    5.4068    0.0000 C   0  0  0  0  0  0  0  0  0  0  0  0
  1  2  1  0  0  0  0
  2  3  1  0  0  0  0
  2 30  1  0  0  0  0
  3  4  2  0  0  0  0
  3  5  1  0  0  0  0
  5  6  1  0  0  0  0
  7  6  1  0  0  0  0
  6 13  1  0  0  0  0
  8  7  1  0  0  0  0
  7 12  1  0  0  0  0
  9  8  1  0  0  0  0
 10  9  1  0  0  0  0
 11 10  2  0  0  0  0
 10 18  1  0  0  0  0
 12 11  1  0  0  0  0
 11 15  1  0  0  0  0
 13 12  1  0  0  0  0
 13 14  2  0  0  0  0
 15 16  2  0  0  0  0
 15 17  1  0  0  0  0
 18 19  1  0  0  0  0
 19 20  1  0  0  0  0
 21 20  2  0  0  0  0
 20 24  1  0  0  0  0
 22 21  1  0  0  0  0
 23 22  2  0  0  0  0
 24 23  1  0  0  0  0
 24 25  1  0  0  0  0
 25 26  1  0  0  0  0
 26 27  2  0  0  0  0
 26 28  2  0  0  0  0
 26 29  1  0  0  0  0
 31 30  2  0  0  0  0
 30 35  1  0  0  0  0
 32 31  1  0  0  0  0
 33 32  2  0  0  0  0
 34 33  1  0  0  0  0
 35 34  2  0  0  0  0
M  END
> <Inchi_key>
DYAIAHUQIPBDIP-UHFFFAOYSA-N

> <Source>
Mulliner , Kotsampasakou

> <ID>
EK0106;HT0409

> <H_MFHB>
0

> <CAS>


> <Cholestasis>
0

> <Name>
cefonicid sodium;cefonicid

> <Class>
0

$$$$