
  -INDIGO-08031710012D

 35 36  0  0  0  0  0  0  0  0999 V2000
    0.6754   -2.5202    0.0000 O   0  0  0  0  0  0  0  0  0  0  0  0
    1.9744   -1.7702    0.0000 C   0  0  0  0  0  0  0  0  0  0  0  0
    3.2734   -2.5202    0.0000 C   0  0  0  0  0  0  0  0  0  0  0  0
    4.5723   -1.7702    0.0000 O   0  0  0  0  0  0  0  0  0  0  0  0
    4.5723   -0.2702    0.0000 C   0  0  0  0  0  0  0  0  0  0  0  0
    5.8713    0.4798    0.0000 O   0  0  0  0  0  0  0  0  0  0  0  0
    7.1706   -0.2702    0.0000 C   0  0  0  0  0  0  0  0  0  0  0  0
    7.1706   -1.7702    0.0000 C   0  0  0  0  0  0  0  0  0  0  0  0
    8.4695   -2.5202    0.0000 O   0  0  0  0  0  0  0  0  0  0  0  0
    9.7685   -1.7702    0.0000 C   0  0  0  0  0  0  0  0  0  0  0  0
   11.0675   -2.5202    0.0000 O   0  0  0  0  0  0  0  0  0  0  0  0
    9.7685   -0.2702    0.0000 C   0  0  0  0  0  0  0  0  0  0  0  0
   11.0675    0.4798    0.0000 O   0  0  0  0  0  0  0  0  0  0  0  0
   12.3667   -0.2702    0.0000 S   0  0  0  0  0  0  0  0  0  0  0  0
   13.1167    1.0289    0.0000 O   0  0  0  0  0  0  0  0  0  0  0  0
   11.6165   -1.5692    0.0000 O   0  0  0  0  0  0  0  0  0  0  0  0
   13.6657   -1.0202    0.0000 O   0  0  0  0  0  0  0  0  0  0  0  0
    8.4695    0.4798    0.0000 C   0  0  0  0  0  0  0  0  0  0  0  0
    8.4695    1.9798    0.0000 O   0  0  0  0  0  0  0  0  0  0  0  0
    9.7685    2.7298    0.0000 S   0  0  0  0  0  0  0  0  0  0  0  0
   10.5185    1.4308    0.0000 O   0  0  0  0  0  0  0  0  0  0  0  0
    9.0185    4.0289    0.0000 O   0  0  0  0  0  0  0  0  0  0  0  0
   11.0675    3.4798    0.0000 O   0  0  0  0  0  0  0  0  0  0  0  0
    3.2734    0.4798    0.0000 C   0  0  0  0  0  0  0  0  0  0  0  0
    3.2734    1.9798    0.0000 O   0  0  0  0  0  0  0  0  0  0  0  0
    1.9744    2.7298    0.0000 S   0  0  0  0  0  0  0  0  0  0  0  0
    2.7244    4.0289    0.0000 O   0  0  0  0  0  0  0  0  0  0  0  0
    1.2244    1.4308    0.0000 O   0  0  0  0  0  0  0  0  0  0  0  0
    0.6754    3.4798    0.0000 O   0  0  0  0  0  0  0  0  0  0  0  0
    1.9744   -0.2702    0.0000 C   0  0  0  0  0  0  0  0  0  0  0  0
    0.6754    0.4798    0.0000 O   0  0  0  0  0  0  0  0  0  0  0  0
   -0.6238   -0.2702    0.0000 S   0  0  0  0  0  0  0  0  0  0  0  0
   -1.3738    1.0289    0.0000 O   0  0  0  0  0  0  0  0  0  0  0  0
    0.1262   -1.5692    0.0000 O   0  0  0  0  0  0  0  0  0  0  0  0
   -1.9228   -1.0202    0.0000 O   0  0  0  0  0  0  0  0  0  0  0  0
  1  2  1  0  0  0  0
  3  2  1  0  0  0  0
  2 30  1  0  0  0  0
  4  3  1  0  0  0  0
  5  4  1  0  0  0  0
  5  6  1  0  0  0  0
 24  5  1  0  0  0  0
  6  7  1  0  0  0  0
  8  7  1  0  0  0  0
  7 18  1  0  0  0  0
  9  8  1  0  0  0  0
 10  9  1  0  0  0  0
 10 11  1  0  0  0  0
 12 10  1  0  0  0  0
 12 13  1  0  0  0  0
 18 12  1  0  0  0  0
 13 14  1  0  0  0  0
 14 15  2  0  0  0  0
 14 16  2  0  0  0  0
 14 17  1  0  0  0  0
 18 19  1  0  0  0  0
 19 20  1  0  0  0  0
 20 21  2  0  0  0  0
 20 22  2  0  0  0  0
 20 23  1  0  0  0  0
 24 25  1  0  0  0  0
 30 24  1  0  0  0  0
 25 26  1  0  0  0  0
 26 27  2  0  0  0  0
 26 28  2  0  0  0  0
 26 29  1  0  0  0  0
 30 31  1  0  0  0  0
 31 32  1  0  0  0  0
 32 33  2  0  0  0  0
 32 34  2  0  0  0  0
 32 35  1  0  0  0  0
M  END
> <Inchi_key>
FCCNSUIJIOOXEZ-UHFFFAOYSA-N

> <Source>
Mulliner

> <ID>
HT1625

> <H_MFHB>
0

> <CAS>


> <Cholestasis>


> <Name>
pentosan polysulfate

> <Class>
0

$$$$