
  -INDIGO-08031710012D

 46 51  0  0  0  0  0  0  0  0999 V2000
   15.3606   -8.8685    0.0000 C   0  0  0  0  0  0  0  0  0  0  0  0
   14.6108   -7.5695    0.0000 O   0  0  0  0  0  0  0  0  0  0  0  0
   15.3606   -6.2703    0.0000 C   0  0  0  0  0  0  0  0  0  0  0  0
   14.6108   -4.9714    0.0000 C   0  0  0  0  0  0  0  0  0  0  0  0
   15.3606   -3.6724    0.0000 N   0  0  0  0  0  0  0  0  0  0  0  0
   16.8607   -3.6724    0.0000 C   0  0  0  0  0  0  0  0  0  0  0  0
   17.6107   -4.9714    0.0000 C   0  0  0  0  0  0  0  0  0  0  0  0
   16.8607   -6.2703    0.0000 O   0  0  0  0  0  0  0  0  0  0  0  0
   14.6108   -2.3732    0.0000 C   0  0  0  0  0  0  0  0  0  0  0  0
   13.1107   -2.3732    0.0000 C   0  0  0  0  0  0  0  0  0  0  0  0
   12.3607   -1.0742    0.0000 C   0  0  0  0  0  0  0  0  0  0  0  0
   10.8606   -1.0742    0.0000 O   0  0  0  0  0  0  0  0  0  0  0  0
   10.1106    0.2247    0.0000 C   0  0  0  0  0  0  0  0  0  0  0  0
   10.8606    1.5237    0.0000 C   0  0  0  0  0  0  0  0  0  0  0  0
   10.1106    2.8227    0.0000 C   0  0  0  0  0  0  0  0  0  0  0  0
   11.4098    3.5729    0.0000 O   0  0  0  0  0  0  0  0  0  0  0  0
    8.6108    2.8227    0.0000 C   0  0  0  0  0  0  0  0  0  0  0  0
    7.8608    1.5237    0.0000 C   0  0  0  0  0  0  0  0  0  0  0  0
    6.3607    1.5237    0.0000 C   0  0  0  0  0  0  0  0  0  0  0  0
    5.6107    2.8227    0.0000 O   0  0  0  0  0  0  0  0  0  0  0  0
    5.6107    0.2247    0.0000 C   0  0  0  0  0  0  0  0  0  0  0  0
    4.1106    0.2247    0.0000 C   0  0  0  0  0  0  0  0  0  0  0  0
    3.3608    1.5237    0.0000 O   0  0  0  0  0  0  0  0  0  0  0  0
    3.3608   -1.0742    0.0000 C   0  0  0  0  0  0  0  0  0  0  0  0
    1.8607   -1.0742    0.0000 C   0  0  0  0  0  0  0  0  0  0  0  0
    1.1107   -2.3732    0.0000 C   0  0  0  0  0  0  0  0  0  0  0  0
    1.8607   -3.6724    0.0000 C   0  0  0  0  0  0  0  0  0  0  0  0
    3.3608   -3.6724    0.0000 C   0  0  0  0  0  0  0  0  0  0  0  0
    4.1106   -4.9714    0.0000 O   0  0  0  0  0  0  0  0  0  0  0  0
    3.3608   -6.2703    0.0000 C   0  0  0  0  0  0  0  0  0  0  0  0
    4.1106   -2.3732    0.0000 C   0  0  0  0  0  0  0  0  0  0  0  0
    5.6107   -2.3732    0.0000 C   0  0  0  0  0  0  0  0  0  0  0  0
    6.3607   -3.6724    0.0000 O   0  0  0  0  0  0  0  0  0  0  0  0
    6.3607   -1.0742    0.0000 C   0  0  0  0  0  0  0  0  0  0  0  0
    7.8608   -1.0742    0.0000 C   0  0  0  0  0  0  0  0  0  0  0  0
    8.6108   -2.3732    0.0000 O   0  0  0  0  0  0  0  0  0  0  0  0
    8.6108    0.2247    0.0000 C   0  0  0  0  0  0  0  0  0  0  0  0
   10.1106    4.3229    0.0000 C   0  0  0  0  0  0  0  0  0  0  0  0
   11.4098    5.0728    0.0000 O   0  0  0  0  0  0  0  0  0  0  0  0
    8.8117    5.0728    0.0000 C   0  0  0  0  0  0  0  0  0  0  0  0
    8.8117    6.5728    0.0000 O   0  0  0  0  0  0  0  0  0  0  0  0
   13.1107    0.2247    0.0000 O   0  0  0  0  0  0  0  0  0  0  0  0
   14.6108    0.2247    0.0000 C   0  0  0  0  0  0  0  0  0  0  0  0
   15.3606    1.5237    0.0000 C   0  0  0  0  0  0  0  0  0  0  0  0
   15.3606   -1.0742    0.0000 C   0  0  0  0  0  0  0  0  0  0  0  0
   16.8607   -1.0742    0.0000 O   0  0  0  0  0  0  0  0  0  0  0  0
  1  2  1  0  0  0  0
  2  3  1  0  0  0  0
  4  3  1  0  0  0  0
  3  8  1  0  0  0  0
  5  4  1  0  0  0  0
  6  5  1  0  0  0  0
  5  9  1  0  0  0  0
  7  6  1  0  0  0  0
  8  7  1  0  0  0  0
 10  9  1  0  0  0  0
  9 45  1  0  0  0  0
 11 10  1  0  0  0  0
 11 12  1  0  0  0  0
 42 11  1  0  0  0  0
 12 13  1  0  0  0  0
 14 13  1  0  0  0  0
 13 37  1  0  0  0  0
 15 14  1  0  0  0  0
 15 16  1  0  0  0  0
 17 15  1  0  0  0  0
 15 38  1  0  0  0  0
 18 17  1  0  0  0  0
 19 18  2  0  0  0  0
 18 37  1  0  0  0  0
 19 20  1  0  0  0  0
 21 19  1  0  0  0  0
 22 21  1  0  0  0  0
 21 34  2  0  0  0  0
 22 23  2  0  0  0  0
 24 22  1  0  0  0  0
 25 24  2  0  0  0  0
 24 31  1  0  0  0  0
 26 25  1  0  0  0  0
 27 26  2  0  0  0  0
 28 27  1  0  0  0  0
 28 29  1  0  0  0  0
 31 28  2  0  0  0  0
 29 30  1  0  0  0  0
 32 31  1  0  0  0  0
 32 33  2  0  0  0  0
 34 32  1  0  0  0  0
 35 34  1  0  0  0  0
 35 36  1  0  0  0  0
 37 35  2  0  0  0  0
 38 39  2  0  0  0  0
 38 40  1  0  0  0  0
 40 41  1  0  0  0  0
 43 42  1  0  0  0  0
 43 44  1  0  0  0  0
 45 43  1  0  0  0  0
 45 46  1  0  0  0  0
M  END
> <Inchi_key>
CTMCWCONSULRHO-UHFFFAOYSA-N

> <Source>
Mulliner

> <ID>
HT3974

> <H_MFHB>
0

> <CAS>
108852-90-0

> <Cholestasis>


> <Name>


> <Class>
0

$$$$