

  -INDIGO-08031710012D

 35 38  0  0  0  0  0  0  0  0999 V2000
    8.4860    0.0910    0.0000 C   0  0  0  0  0  0  0  0  0  0  0  0
    9.2079    1.4059    0.0000 C   0  0  0  0  0  0  0  0  0  0  0  0
    8.4299    2.6884    0.0000 C   0  0  0  0  0  0  0  0  0  0  0  0
    9.1515    4.0034    0.0000 C   0  0  0  0  0  0  0  0  0  0  0  0
    8.3735    5.2859    0.0000 N   0  0  0  0  0  0  0  0  0  0  0  0
    9.0953    6.6008    0.0000 C   0  0  0  0  0  0  0  0  0  0  0  0
   10.5949    6.6332    0.0000 C   0  0  0  0  0  0  0  0  0  0  0  0
   11.3167    7.9484    0.0000 C   0  0  0  0  0  0  0  0  0  0  0  0
   12.8163    7.9808    0.0000 C   0  0  0  0  0  0  0  0  0  0  0  0
    6.8739    5.2535    0.0000 C   0  0  0  0  0  0  0  0  0  0  0  0
    6.0959    6.5360    0.0000 C   0  0  0  0  0  0  0  0  0  0  0  0
    6.8178    7.8509    0.0000 O   0  0  0  0  0  0  0  0  0  0  0  0
    4.5964    6.5036    0.0000 C   0  0  0  0  0  0  0  0  0  0  0  0
    3.8745    5.1884    0.0000 C   0  0  0  0  0  0  0  0  0  0  0  0
    2.3750    5.1560    0.0000 C   0  0  0  0  0  0  0  0  0  0  0  0
    1.6534    3.8411    0.0000 Cl  0  0  0  0  0  0  0  0  0  0  0  0
    1.5970    6.4386    0.0000 C   0  0  0  0  0  0  0  0  0  0  0  0
    2.3188    7.7535    0.0000 C   0  0  0  0  0  0  0  0  0  0  0  0
    1.8246    9.1698    0.0000 C   0  0  0  0  0  0  0  0  0  0  0  0
    0.3881    9.6024    0.0000 C   0  0  0  0  0  0  0  0  0  0  0  0
   -0.7044    8.5748    0.0000 C   0  0  0  0  0  0  0  0  0  0  0  0
   -0.3609    7.1144    0.0000 C   0  0  0  0  0  0  0  0  0  0  0  0
   -1.4537    6.0870    0.0000 C   0  0  0  0  0  0  0  0  0  0  0  0
   -2.8899    6.5196    0.0000 C   0  0  0  0  0  0  0  0  0  0  0  0
   -3.9827    5.4920    0.0000 Cl  0  0  0  0  0  0  0  0  0  0  0  0
   -3.2337    7.9795    0.0000 C   0  0  0  0  0  0  0  0  0  0  0  0
   -2.1409    9.0071    0.0000 C   0  0  0  0  0  0  0  0  0  0  0  0
    3.0186   10.0775    0.0000 C   0  0  0  0  0  0  0  0  0  0  0  0
    3.1432   11.5724    0.0000 C   0  0  0  0  0  0  0  0  0  0  0  0
    4.5000   12.2119    0.0000 C   0  0  0  0  0  0  0  0  0  0  0  0
    4.6243   13.7067    0.0000 Cl  0  0  0  0  0  0  0  0  0  0  0  0
    5.7322   11.3567    0.0000 C   0  0  0  0  0  0  0  0  0  0  0  0
    5.6076    9.8619    0.0000 C   0  0  0  0  0  0  0  0  0  0  0  0
    4.2511    9.2224    0.0000 C   0  0  0  0  0  0  0  0  0  0  0  0
    3.8184    7.7861    0.0000 C   0  0  0  0  0  0  0  0  0  0  0  0
  1  2  1  0  0  0  0
  2  3  1  0  0  0  0
  3  4  1  0  0  0  0
  4  5  1  0  0  0  0
  5  6  1  0  0  0  0
  5 10  1  0  0  0  0
  6  7  1  0  0  0  0
  7  8  1  0  0  0  0
  8  9  1  0  0  0  0
 10 11  1  0  0  0  0
 11 12  1  0  0  0  0
 11 13  1  0  0  0  0
 14 13  2  0  0  0  0
 13 35  1  0  0  0  0
 15 14  1  0  0  0  0
 15 16  1  0  0  0  0
 17 15  2  0  0  0  0
 18 17  1  0  0  0  0
 19 18  1  0  0  0  0
 18 35  2  0  0  0  0
 19 20  2  0  0  0  0
 28 19  1  0  0  0  0
 20 21  1  0  0  0  0
 22 21  2  0  0  0  0
 21 27  1  0  0  0  0
 23 22  1  0  0  0  0
 24 23  2  0  0  0  0
 24 25  1  0  0  0  0
 26 24  1  0  0  0  0
 27 26  2  0  0  0  0
 29 28  1  0  0  0  0
 28 34  2  0  0  0  0
 30 29  2  0  0  0  0
 30 31  1  0  0  0  0
 32 30  1  0  0  0  0
 33 32  2  0  0  0  0
 34 33  1  0  0  0  0
 35 34  1  0  0  0  0
M  END
> <Inchi_key>
DYLGFOYVTXJFJP-MYYYXRDXSA-N

> <Source>
Mulliner

> <ID>
HT1256

> <H_MFHB>
0

> <CAS>


> <Cholestasis>


> <Name>
lumefantrine

> <Class>
0


$$$$