

  -INDIGO-08031710012D

 31 34  0  0  0  0  0  0  0  0999 V2000
   20.2468    1.1735    0.0000 C   0  0  0  0  0  0  0  0  0  0  0  0
   18.7568    1.0002    0.0000 C   0  0  0  0  0  0  0  0  0  0  0  0
   17.8619    2.2039    0.0000 C   0  0  0  0  0  0  0  0  0  0  0  0
   16.3719    2.0306    0.0000 C   0  0  0  0  0  0  0  0  0  0  0  0
   15.4767    3.2343    0.0000 C   0  0  0  0  0  0  0  0  0  0  0  0
   13.9867    3.0610    0.0000 C   0  0  0  0  0  0  0  0  0  0  0  0
   13.3919    1.6840    0.0000 O   0  0  0  0  0  0  0  0  0  0  0  0
   13.0916    4.2647    0.0000 O   0  0  0  0  0  0  0  0  0  0  0  0
   11.6019    4.0914    0.0000 C   0  0  0  0  0  0  0  0  0  0  0  0
   11.6968    2.5944    0.0000 C   0  0  0  0  0  0  0  0  0  0  0  0
   10.3024    2.0414    0.0000 C   0  0  0  0  0  0  0  0  0  0  0  0
    9.3457    3.1966    0.0000 C   0  0  0  0  0  0  0  0  0  0  0  0
    7.8470    3.2585    0.0000 C   0  0  0  0  0  0  0  0  0  0  0  0
    7.0439    1.9915    0.0000 C   0  0  0  0  0  0  0  0  0  0  0  0
    5.5454    2.0534    0.0000 C   0  0  0  0  0  0  0  0  0  0  0  0
    4.8495    3.3823    0.0000 C   0  0  0  0  0  0  0  0  0  0  0  0
    3.3508    3.4443    0.0000 C   0  0  0  0  0  0  0  0  0  0  0  0
    2.6551    4.7732    0.0000 C   0  0  0  0  0  0  0  0  0  0  0  0
    1.1564    4.8351    0.0000 O   0  0  0  0  0  0  0  0  0  0  0  0
    3.4580    6.0401    0.0000 C   0  0  0  0  0  0  0  0  0  0  0  0
    4.9567    5.9782    0.0000 C   0  0  0  0  0  0  0  0  0  0  0  0
    5.6526    4.6493    0.0000 C   0  0  0  0  0  0  0  0  0  0  0  0
    6.4555    5.9163    0.0000 C   0  0  0  0  0  0  0  0  0  0  0  0
    7.1511    4.5874    0.0000 C   0  0  0  0  0  0  0  0  0  0  0  0
    7.9542    5.8544    0.0000 C   0  0  0  0  0  0  0  0  0  0  0  0
    9.4529    5.7924    0.0000 C   0  0  0  0  0  0  0  0  0  0  0  0
   10.1486    4.4635    0.0000 C   0  0  0  0  0  0  0  0  0  0  0  0
   11.0589    5.6557    0.0000 C   0  0  0  0  0  0  0  0  0  0  0  0
   12.1483    5.4883    0.0000 C   0  0  0  0  0  0  0  0  0  0  0  0
   11.2118    6.6600    0.0000 O   0  0  0  0  0  0  0  0  0  0  0  0
   13.6314    5.7135    0.0000 C   0  0  0  0  0  0  0  0  0  0  0  0
  1  2  1  0  0  0  0
  2  3  1  0  0  0  0
  3  4  1  0  0  0  0
  4  5  1  0  0  0  0
  5  6  1  0  0  0  0
  6  7  2  0  0  0  0
  6  8  1  0  0  0  0
  8  9  1  0  0  0  0
 10  9  1  0  0  0  0
  9 27  1  0  0  0  0
  9 29  1  0  0  0  0
 11 10  1  0  0  0  0
 12 11  1  0  0  0  0
 13 12  1  0  0  0  0
 12 27  1  0  0  0  0
 14 13  1  0  0  0  0
 13 24  1  0  0  0  0
 15 14  1  0  0  0  0
 16 15  1  0  0  0  0
 17 16  2  0  0  0  0
 16 22  1  0  0  0  0
 18 17  1  0  0  0  0
 18 19  2  0  0  0  0
 20 18  1  0  0  0  0
 21 20  1  0  0  0  0
 22 21  1  0  0  0  0
 22 23  1  0  0  0  0
 24 22  1  0  0  0  0
 25 24  1  0  0  0  0
 26 25  1  0  0  0  0
 27 26  1  0  0  0  0
 27 28  1  0  0  0  0
 29 30  2  0  0  0  0
 29 31  1  0  0  0  0
M  END
> <Inchi_key>
DOMWKUIIPQCAJU-UHFFFAOYSA-N

> <Source>
Mulliner

> <ID>
HT1062

> <H_MFHB>
0

> <CAS>


> <Cholestasis>


> <Name>
hydroxyprogesterone caproate

> <Class>
0


$$$$