
  -INDIGO-08031709442D

 17 18  0  0  0  0  0  0  0  0999 V2000
   -8.0822   -0.3671    0.0000 O   0  0  0  0  0  0  0  0  0  0  0  0
   -9.5760   -0.5031    0.0000 C   0  0  0  0  0  0  0  0  0  0  0  0
   -7.4530    0.9946    0.0000 C   0  0  0  0  0  0  0  0  0  0  0  0
   -5.9593    1.1305    0.0000 C   0  0  0  0  0  0  0  0  0  0  0  0
   -5.3300    2.4922    0.0000 C   0  0  0  0  0  0  0  0  0  0  0  0
   -6.1948    3.7179    0.0000 C   0  0  0  0  0  0  0  0  0  0  0  0
   -5.2962    4.9190    0.0000 N   0  0  0  0  0  0  0  0  0  0  0  0
   -3.8763    4.4357    0.0000 C   0  0  0  0  0  0  0  0  0  0  0  0
   -3.8973    2.9358    0.0000 C   0  0  0  0  0  0  0  0  0  0  0  0
   -2.6960    2.0373    0.0000 C   0  0  0  0  0  0  0  0  0  0  0  0
   -1.3174    2.6283    0.0000 C   0  0  0  0  0  0  0  0  0  0  0  0
   -0.1163    1.7298    0.0000 N   0  0  0  0  0  0  0  0  0  0  0  0
    1.2625    2.3207    0.0000 C   0  0  0  0  0  0  0  0  0  0  0  0
    1.4400    3.8102    0.0000 O   0  0  0  0  0  0  0  0  0  0  0  0
    2.4636    1.4222    0.0000 C   0  0  0  0  0  0  0  0  0  0  0  0
   -7.6885    3.5819    0.0000 C   0  0  0  0  0  0  0  0  0  0  0  0
   -8.3178    2.2202    0.0000 C   0  0  0  0  0  0  0  0  0  0  0  0
  1  2  1  0  0  0  0
  1  3  1  0  0  0  0
  4  3  2  0  0  0  0
  3 17  1  0  0  0  0
  5  4  1  0  0  0  0
  5  6  2  0  0  0  0
  9  5  1  0  0  0  0
  6  7  1  0  0  0  0
 16  6  1  0  0  0  0
  7  8  1  0  0  0  0
  8  9  2  0  0  0  0
  9 10  1  0  0  0  0
 10 11  1  0  0  0  0
 11 12  1  0  0  0  0
 12 13  1  0  0  0  0
 13 14  2  0  0  0  0
 13 15  1  0  0  0  0
 17 16  2  0  0  0  0
M  END
> <Inchi_key>
DRLFMBDRBRZALE-UHFFFAOYSA-N

> <Source>
Kotsampasakou

> <ID>
EK0319

> <H_MFHB>


> <CAS>


> <Cholestasis>
0

> <Name>
melatonin

> <Class>
0

$$$$