

  -INDIGO-08031710012D

 25 27  0  0  0  0  0  0  0  0999 V2000
    7.2449    7.2448    0.0000 C   0  0  0  0  0  0  0  0  0  0  0  0
    7.2449    5.7448    0.0000 N   0  0  0  0  0  0  0  0  0  0  0  0
    8.5438    4.9948    0.0000 C   0  0  0  0  0  0  0  0  0  0  0  0
    8.5438    3.4948    0.0000 C   0  0  0  0  0  0  0  0  0  0  0  0
    7.2449    2.7448    0.0000 C   0  0  0  0  0  0  0  0  0  0  0  0
    5.9456    3.4948    0.0000 N   0  0  0  0  0  0  0  0  0  0  0  0
    5.9456    4.9948    0.0000 C   0  0  0  0  0  0  0  0  0  0  0  0
    4.6467    5.7448    0.0000 C   0  0  0  0  0  0  0  0  0  0  0  0
    3.3478    4.9948    0.0000 O   0  0  0  0  0  0  0  0  0  0  0  0
    2.0485    5.7448    0.0000 C   0  0  0  0  0  0  0  0  0  0  0  0
    2.0485    7.2448    0.0000 O   0  0  0  0  0  0  0  0  0  0  0  0
    0.7496    4.9948    0.0000 C   0  0  0  0  0  0  0  0  0  0  0  0
    1.4996    3.6957    0.0000 O   0  0  0  0  0  0  0  0  0  0  0  0
   -0.0004    6.2938    0.0000 C   0  0  0  0  0  0  0  0  0  0  0  0
    0.7496    7.5928    0.0000 C   0  0  0  0  0  0  0  0  0  0  0  0
   -0.0004    8.8919    0.0000 C   0  0  0  0  0  0  0  0  0  0  0  0
   -1.5004    8.8919    0.0000 C   0  0  0  0  0  0  0  0  0  0  0  0
   -2.2503    7.5928    0.0000 C   0  0  0  0  0  0  0  0  0  0  0  0
   -1.5004    6.2938    0.0000 C   0  0  0  0  0  0  0  0  0  0  0  0
   -0.5495    4.2448    0.0000 C   0  0  0  0  0  0  0  0  0  0  0  0
   -0.5495    2.7448    0.0000 C   0  0  0  0  0  0  0  0  0  0  0  0
   -1.8486    1.9948    0.0000 C   0  0  0  0  0  0  0  0  0  0  0  0
   -3.1475    2.7448    0.0000 C   0  0  0  0  0  0  0  0  0  0  0  0
   -3.1475    4.2448    0.0000 C   0  0  0  0  0  0  0  0  0  0  0  0
   -1.8486    4.9948    0.0000 C   0  0  0  0  0  0  0  0  0  0  0  0
  1  2  1  0  0  0  0
  3  2  1  0  0  0  0
  2  7  1  0  0  0  0
  4  3  1  0  0  0  0
  5  4  1  0  0  0  0
  6  5  1  0  0  0  0
  7  6  2  0  0  0  0
  7  8  1  0  0  0  0
  8  9  1  0  0  0  0
  9 10  1  0  0  0  0
 10 11  2  0  0  0  0
 10 12  1  0  0  0  0
 12 13  1  0  0  0  0
 12 14  1  0  0  0  0
 12 20  1  0  0  0  0
 15 14  1  0  0  0  0
 14 19  1  0  0  0  0
 16 15  1  0  0  0  0
 17 16  1  0  0  0  0
 18 17  1  0  0  0  0
 19 18  1  0  0  0  0
 21 20  2  0  0  0  0
 20 25  1  0  0  0  0
 22 21  1  0  0  0  0
 23 22  2  0  0  0  0
 24 23  1  0  0  0  0
 25 24  2  0  0  0  0
M  END
> <Inchi_key>
DUDKAZCAISNGQN-UHFFFAOYSA-N

> <Source>
Mulliner

> <ID>
HT1572

> <H_MFHB>
0

> <CAS>


> <Cholestasis>


> <Name>
oxyphencyclimine;oxyphencyclimine hydrochloride

> <Class>
0


$$$$