

  -INDIGO-08031710012D

 23 24  0  0  0  0  0  0  0  0999 V2000
    8.2981    4.8354    0.0000 O   0  0  0  0  0  0  0  0  0  0  0  0
    7.0107    4.0657    0.0000 C   0  0  0  0  0  0  0  0  0  0  0  0
    7.0336    2.5659    0.0000 C   0  0  0  0  0  0  0  0  0  0  0  0
    5.7461    1.7961    0.0000 O   0  0  0  0  0  0  0  0  0  0  0  0
    5.7690    0.2963    0.0000 C   0  0  0  0  0  0  0  0  0  0  0  0
    4.4817   -0.4734    0.0000 O   0  0  0  0  0  0  0  0  0  0  0  0
    3.1712    0.2567    0.0000 C   0  0  0  0  0  0  0  0  0  0  0  0
    3.1418   -1.2430    0.0000 C   0  0  0  0  0  0  0  0  0  0  0  0
    1.8282   -1.9674    0.0000 O   0  0  0  0  0  0  0  0  0  0  0  0
    3.7362    1.6462    0.0000 O   0  0  0  0  0  0  0  0  0  0  0  0
    2.5893    2.6129    0.0000 C   0  0  0  0  0  0  0  0  0  0  0  0
    2.6972    4.1090    0.0000 C   0  0  0  0  0  0  0  0  0  0  0  0
    1.4555    4.9506    0.0000 O   0  0  0  0  0  0  0  0  0  0  0  0
    1.3153    1.8208    0.0000 C   0  0  0  0  0  0  0  0  0  0  0  0
   -0.0741    2.3858    0.0000 O   0  0  0  0  0  0  0  0  0  0  0  0
    1.6751    0.3646    0.0000 C   0  0  0  0  0  0  0  0  0  0  0  0
    0.7084   -0.7823    0.0000 O   0  0  0  0  0  0  0  0  0  0  0  0
    7.0793   -0.4338    0.0000 C   0  0  0  0  0  0  0  0  0  0  0  0
    7.1022   -1.9336    0.0000 O   0  0  0  0  0  0  0  0  0  0  0  0
    8.3668    0.3359    0.0000 C   0  0  0  0  0  0  0  0  0  0  0  0
    9.6771   -0.3942    0.0000 O   0  0  0  0  0  0  0  0  0  0  0  0
    8.3439    1.8358    0.0000 C   0  0  0  0  0  0  0  0  0  0  0  0
    9.6314    2.6055    0.0000 O   0  0  0  0  0  0  0  0  0  0  0  0
  1  2  1  0  0  0  0
  2  3  1  0  0  0  0
  4  3  1  0  0  0  0
  3 22  1  0  0  0  0
  5  4  1  0  0  0  0
  5  6  1  0  0  0  0
 18  5  1  0  0  0  0
  6  7  1  0  0  0  0
  7  8  1  0  0  0  0
 10  7  1  0  0  0  0
  7 16  1  0  0  0  0
  8  9  1  0  0  0  0
 11 10  1  0  0  0  0
 11 12  1  0  0  0  0
 14 11  1  0  0  0  0
 12 13  1  0  0  0  0
 14 15  1  0  0  0  0
 16 14  1  0  0  0  0
 16 17  1  0  0  0  0
 18 19  1  0  0  0  0
 20 18  1  0  0  0  0
 20 21  1  0  0  0  0
 22 20  1  0  0  0  0
 22 23  1  0  0  0  0
M  END
> <Inchi_key>
CZMRCDWAGMRECN-UHFFFAOYSA-N

> <Source>
Mulliner

> <ID>
HT1126

> <H_MFHB>
0

> <CAS>


> <Cholestasis>


> <Name>
iron sucrose;sucrose

> <Class>
0


$$$$