
  -INDIGO-08031710012D

 29 32  0  0  0  0  0  0  0  0999 V2000
    0.7244   -0.7244    0.0000 C   0  0  0  0  0  0  0  0  0  0  0  0
    0.7244    0.7756    0.0000 C   0  0  0  0  0  0  0  0  0  0  0  0
    2.0235    1.5256    0.0000 C   0  0  0  0  0  0  0  0  0  0  0  0
    3.3226    0.7756    0.0000 O   0  0  0  0  0  0  0  0  0  0  0  0
    2.0235    3.0256    0.0000 C   0  0  0  0  0  0  0  0  0  0  0  0
    0.7244    3.7756    0.0000 C   0  0  0  0  0  0  0  0  0  0  0  0
    0.7244    5.2756    0.0000 C   0  0  0  0  0  0  0  0  0  0  0  0
    2.0235    6.0256    0.0000 C   0  0  0  0  0  0  0  0  0  0  0  0
    2.0235    7.5256    0.0000 S   0  0  0  0  0  0  0  0  0  0  0  0
    3.3226    8.2756    0.0000 C   0  0  0  0  0  0  0  0  0  0  0  0
    3.3226    9.7756    0.0000 C   0  0  0  0  0  0  0  0  0  0  0  0
    4.6215   10.5256    0.0000 C   0  0  0  0  0  0  0  0  0  0  0  0
    5.9206    9.7756    0.0000 C   0  0  0  0  0  0  0  0  0  0  0  0
    5.9206    8.2756    0.0000 C   0  0  0  0  0  0  0  0  0  0  0  0
    4.6215    7.5256    0.0000 C   0  0  0  0  0  0  0  0  0  0  0  0
    4.6215    6.0256    0.0000 N   0  0  0  0  0  0  0  0  0  0  0  0
    5.9206    5.2756    0.0000 C   0  0  0  0  0  0  0  0  0  0  0  0
    7.2197    6.0256    0.0000 C   0  0  0  0  0  0  0  0  0  0  0  0
    8.5185    5.2756    0.0000 N   0  0  0  0  0  0  0  0  0  0  0  0
    8.5185    3.7756    0.0000 C   0  0  0  0  0  0  0  0  0  0  0  0
    9.8176    3.0256    0.0000 C   0  0  0  0  0  0  0  0  0  0  0  0
   11.1167    3.7756    0.0000 N   0  0  0  0  0  0  0  0  0  0  0  0
   12.4156    3.0256    0.0000 C   0  0  0  0  0  0  0  0  0  0  0  0
   13.7147    3.7756    0.0000 C   0  0  0  0  0  0  0  0  0  0  0  0
   15.0138    3.0256    0.0000 O   0  0  0  0  0  0  0  0  0  0  0  0
   11.1167    5.2756    0.0000 C   0  0  0  0  0  0  0  0  0  0  0  0
    9.8176    6.0256    0.0000 C   0  0  0  0  0  0  0  0  0  0  0  0
    3.3226    5.2756    0.0000 C   0  0  0  0  0  0  0  0  0  0  0  0
    3.3226    3.7756    0.0000 C   0  0  0  0  0  0  0  0  0  0  0  0
  1  2  1  0  0  0  0
  2  3  1  0  0  0  0
  3  4  2  0  0  0  0
  3  5  1  0  0  0  0
  6  5  2  0  0  0  0
  5 29  1  0  0  0  0
  7  6  1  0  0  0  0
  8  7  2  0  0  0  0
  9  8  1  0  0  0  0
  8 28  1  0  0  0  0
 10  9  1  0  0  0  0
 11 10  2  0  0  0  0
 10 15  1  0  0  0  0
 12 11  1  0  0  0  0
 13 12  2  0  0  0  0
 14 13  1  0  0  0  0
 15 14  2  0  0  0  0
 16 15  1  0  0  0  0
 16 17  1  0  0  0  0
 28 16  1  0  0  0  0
 17 18  1  0  0  0  0
 18 19  1  0  0  0  0
 20 19  1  0  0  0  0
 19 27  1  0  0  0  0
 21 20  1  0  0  0  0
 22 21  1  0  0  0  0
 22 23  1  0  0  0  0
 26 22  1  0  0  0  0
 23 24  1  0  0  0  0
 24 25  1  0  0  0  0
 27 26  1  0  0  0  0
 29 28  2  0  0  0  0
M  END
> <Inchi_key>
DYCNETKPCXPXNW-UHFFFAOYSA-N

> <Source>
Mulliner

> <ID>
HT0387

> <H_MFHB>
0

> <CAS>


> <Cholestasis>


> <Name>
carphenazine

> <Class>
0

$$$$