
  -INDIGO-08031710012D

 21 21  0  0  0  0  0  0  0  0999 V2000
    3.3738    2.4125    0.0000 C   0  0  0  0  0  0  0  0  0  0  0  0
    4.1237    3.7115    0.0000 C   0  0  0  0  0  0  0  0  0  0  0  0
    5.6236    3.7115    0.0000 C   0  0  0  0  0  0  0  0  0  0  0  0
    6.3737    5.0106    0.0000 C   0  0  0  0  0  0  0  0  0  0  0  0
    7.8737    5.0106    0.0000 O   0  0  0  0  0  0  0  0  0  0  0  0
    3.3738    5.0106    0.0000 C   0  0  0  0  0  0  0  0  0  0  0  0
    1.8738    5.0106    0.0000 C   0  0  0  0  0  0  0  0  0  0  0  0
    1.1237    6.3096    0.0000 C   0  0  0  0  0  0  0  0  0  0  0  0
   -0.3763    6.3096    0.0000 C   0  0  0  0  0  0  0  0  0  0  0  0
   -1.1264    7.6087    0.0000 C   0  0  0  0  0  0  0  0  0  0  0  0
   -1.1264    5.0106    0.0000 C   0  0  0  0  0  0  0  0  0  0  0  0
   -2.6263    5.0106    0.0000 C   0  0  0  0  0  0  0  0  0  0  0  0
   -3.3762    3.7115    0.0000 C   0  0  0  0  0  0  0  0  0  0  0  0
   -2.6263    2.4125    0.0000 C   0  0  0  0  0  0  0  0  0  0  0  0
   -1.1264    2.4125    0.0000 C   0  0  0  0  0  0  0  0  0  0  0  0
   -3.3762    1.1135    0.0000 C   0  0  0  0  0  0  0  0  0  0  0  0
   -4.8762    1.1135    0.0000 C   0  0  0  0  0  0  0  0  0  0  0  0
   -5.6263    2.4125    0.0000 C   0  0  0  0  0  0  0  0  0  0  0  0
   -4.8762    3.7115    0.0000 C   0  0  0  0  0  0  0  0  0  0  0  0
   -4.8762    5.2115    0.0000 C   0  0  0  0  0  0  0  0  0  0  0  0
   -6.1753    4.4615    0.0000 C   0  0  0  0  0  0  0  0  0  0  0  0
  1  2  1  0  0  0  0
  2  3  2  0  0  0  0
  2  6  1  0  0  0  0
  3  4  1  0  0  0  0
  4  5  1  0  0  0  0
  6  7  2  0  0  0  0
  7  8  1  0  0  0  0
  8  9  2  0  0  0  0
  9 10  1  0  0  0  0
  9 11  1  0  0  0  0
 11 12  2  0  0  0  0
 12 13  1  0  0  0  0
 14 13  2  0  0  0  0
 13 19  1  0  0  0  0
 14 15  1  0  0  0  0
 16 14  1  0  0  0  0
 17 16  1  0  0  0  0
 18 17  1  0  0  0  0
 19 18  1  0  0  0  0
 19 20  1  0  0  0  0
 19 21  1  0  0  0  0
M  END
> <Inchi_key>
FPIPGXGPPPQFEQ-BOOMUCAASA-N

> <Source>
Mulliner

> <ID>
HT1816

> <H_MFHB>
0

> <CAS>
68-26-8

> <Cholestasis>


> <Name>
retinol;vitamin a

> <Class>
0

$$$$