

  -INDIGO-08031710012D

 35 38  0  0  0  0  0  0  0  0999 V2000
   -0.2726   -6.0556    0.0000 C   0  0  0  0  0  0  0  0  0  0  0  0
    1.2215   -6.1904    0.0000 C   0  0  0  0  0  0  0  0  0  0  0  0
    2.0850   -4.9641    0.0000 O   0  0  0  0  0  0  0  0  0  0  0  0
    3.5791   -5.0987    0.0000 C   0  0  0  0  0  0  0  0  0  0  0  0
    4.2094   -6.4599    0.0000 O   0  0  0  0  0  0  0  0  0  0  0  0
    4.4426   -3.8724    0.0000 O   0  0  0  0  0  0  0  0  0  0  0  0
    5.9367   -4.0070    0.0000 C   0  0  0  0  0  0  0  0  0  0  0  0
    5.8801   -5.5060    0.0000 C   0  0  0  0  0  0  0  0  0  0  0  0
    7.2883   -6.0228    0.0000 C   0  0  0  0  0  0  0  0  0  0  0  0
    8.2151   -4.8432    0.0000 C   0  0  0  0  0  0  0  0  0  0  0  0
    9.7117   -4.7426    0.0000 C   0  0  0  0  0  0  0  0  0  0  0  0
   10.5470   -5.9885    0.0000 C   0  0  0  0  0  0  0  0  0  0  0  0
   12.0439   -5.8878    0.0000 C   0  0  0  0  0  0  0  0  0  0  0  0
   12.7049   -4.5413    0.0000 C   0  0  0  0  0  0  0  0  0  0  0  0
   14.2015   -4.4407    0.0000 C   0  0  0  0  0  0  0  0  0  0  0  0
   14.8627   -3.0943    0.0000 C   0  0  0  0  0  0  0  0  0  0  0  0
   16.3593   -2.9937    0.0000 O   0  0  0  0  0  0  0  0  0  0  0  0
   14.0271   -1.8485    0.0000 C   0  0  0  0  0  0  0  0  0  0  0  0
   12.5305   -1.9491    0.0000 C   0  0  0  0  0  0  0  0  0  0  0  0
   11.8695   -3.2956    0.0000 C   0  0  0  0  0  0  0  0  0  0  0  0
   11.0339   -2.0498    0.0000 C   0  0  0  0  0  0  0  0  0  0  0  0
   10.3729   -3.3962    0.0000 C   0  0  0  0  0  0  0  0  0  0  0  0
    9.5373   -2.1505    0.0000 C   0  0  0  0  0  0  0  0  0  0  0  0
   10.1985   -0.8040    0.0000 O   0  0  0  0  0  0  0  0  0  0  0  0
    8.0407   -2.2510    0.0000 C   0  0  0  0  0  0  0  0  0  0  0  0
    7.3795   -3.5973    0.0000 C   0  0  0  0  0  0  0  0  0  0  0  0
    6.4388   -2.4292    0.0000 C   0  0  0  0  0  0  0  0  0  0  0  0
    5.3541   -2.6247    0.0000 C   0  0  0  0  0  0  0  0  0  0  0  0
    6.2601   -1.4292    0.0000 O   0  0  0  0  0  0  0  0  0  0  0  0
    3.8659   -2.4379    0.0000 C   0  0  0  0  0  0  0  0  0  0  0  0
    3.2834   -1.0556    0.0000 O   0  0  0  0  0  0  0  0  0  0  0  0
    1.7952   -0.8687    0.0000 C   0  0  0  0  0  0  0  0  0  0  0  0
    0.8892   -2.0644    0.0000 O   0  0  0  0  0  0  0  0  0  0  0  0
    1.2126    0.5135    0.0000 C   0  0  0  0  0  0  0  0  0  0  0  0
   -0.2756    0.7003    0.0000 C   0  0  0  0  0  0  0  0  0  0  0  0
  1  2  1  0  0  0  0
  2  3  1  0  0  0  0
  3  4  1  0  0  0  0
  4  5  2  0  0  0  0
  4  6  1  0  0  0  0
  6  7  1  0  0  0  0
  8  7  1  0  0  0  0
  7 26  1  0  0  0  0
  7 28  1  0  0  0  0
  9  8  1  0  0  0  0
 10  9  1  0  0  0  0
 11 10  1  0  0  0  0
 10 26  1  0  0  0  0
 12 11  1  0  0  0  0
 11 22  1  0  0  0  0
 13 12  1  0  0  0  0
 14 13  1  0  0  0  0
 15 14  2  0  0  0  0
 14 20  1  0  0  0  0
 16 15  1  0  0  0  0
 16 17  2  0  0  0  0
 18 16  1  0  0  0  0
 19 18  2  0  0  0  0
 20 19  1  0  0  0  0
 20 21  1  0  0  0  0
 22 20  1  0  0  0  0
 23 22  1  0  0  0  0
 23 24  1  0  0  0  0
 25 23  1  0  0  0  0
 26 25  1  0  0  0  0
 26 27  1  0  0  0  0
 28 29  2  0  0  0  0
 28 30  1  0  0  0  0
 30 31  1  0  0  0  0
 31 32  1  0  0  0  0
 32 33  2  0  0  0  0
 32 34  1  0  0  0  0
 34 35  1  0  0  0  0
M  END
> <Inchi_key>
FNPXMHRZILFCKX-UHFFFAOYSA-N

> <Source>
Mulliner , Kotsampasakou

> <ID>
EK0438;HT1729

> <H_MFHB>
0

> <CAS>


> <Cholestasis>
0

> <Name>
prednicarbate

> <Class>
0


$$$$