

  -INDIGO-08031710012D

 17 18  0  0  0  0  0  0  0  0999 V2000
    2.7165    0.8013    0.0000 O   0  0  0  0  0  0  0  0  0  0  0  0
    2.7165   -0.6987    0.0000 C   0  0  0  0  0  0  0  0  0  0  0  0
    1.4175   -1.4487    0.0000 N   0  0  0  0  0  0  0  0  0  0  0  0
    4.0156   -1.4487    0.0000 C   0  0  0  0  0  0  0  0  0  0  0  0
    4.0156   -2.9487    0.0000 C   0  0  0  0  0  0  0  0  0  0  0  0
    5.3146   -0.6987    0.0000 N   0  0  0  0  0  0  0  0  0  0  0  0
    5.3146   -3.6987    0.0000 N   0  0  0  0  0  0  0  0  0  0  0  0
    2.7165   -3.6987    0.0000 N   0  0  0  0  0  0  0  0  0  0  0  0
    6.6135   -1.4487    0.0000 C   0  0  0  0  0  0  0  0  0  0  0  0
    6.6135   -2.9487    0.0000 C   0  0  0  0  0  0  0  0  0  0  0  0
    1.4175   -2.9487    0.0000 C   0  0  0  0  0  0  0  0  0  0  0  0
    7.9127   -0.6987    0.0000 C   0  0  0  0  0  0  0  0  0  0  0  0
    0.1184   -3.6987    0.0000 N   0  0  0  0  0  0  0  0  0  0  0  0
    9.2116   -1.4487    0.0000 C   0  0  0  0  0  0  0  0  0  0  0  0
    7.9127    0.8013    0.0000 O   0  0  0  0  0  0  0  0  0  0  0  0
   10.5107   -0.6987    0.0000 C   0  0  0  0  0  0  0  0  0  0  0  0
    9.2116   -2.9487    0.0000 O   0  0  0  0  0  0  0  0  0  0  0  0
  1  2  2  0  0  0  0
  3  2  1  0  0  0  0
  2  4  1  0  0  0  0
  5  4  2  0  0  0  0
  4  6  1  0  0  0  0
  7  5  1  0  0  0  0
  5  8  1  0  0  0  0
  6  9  1  0  0  0  0
 10  7  1  0  0  0  0
  8 11  2  0  0  0  0
  9 12  1  0  0  0  0
  9 10  1  0  0  0  0
 11 13  1  0  0  0  0
 11  3  1  0  0  0  0
 12 14  1  0  0  0  0
 12 15  1  0  0  0  0
 14 16  1  0  0  0  0
 14 17  1  0  0  0  0
M  END
> <Inchi_key>
FNKQXYHWGSIFBK-UHFFFAOYSA-N

> <Source>
Mulliner , Kotsampasakou

> <ID>
EK0519;HT1867

> <H_MFHB>
0

> <CAS>


> <Cholestasis>
0

> <Name>
sapropterin dihydrochloride;tetrahydrobiopterin

> <Class>
0


$$$$