
  -INDIGO-08031710012D

 16 16  0  0  0  0  0  0  0  0999 V2000
    8.4189   -2.2558    0.0000 N   0  0  0  0  0  0  0  0  0  0  0  0
    7.1198   -1.5058    0.0000 S   0  0  0  0  0  0  0  0  0  0  0  0
    7.8698   -0.2068    0.0000 O   0  0  0  0  0  0  0  0  0  0  0  0
    6.3698   -2.8049    0.0000 O   0  0  0  0  0  0  0  0  0  0  0  0
    5.8208   -0.7558    0.0000 C   0  0  0  0  0  0  0  0  0  0  0  0
    5.8208    0.7442    0.0000 C   0  0  0  0  0  0  0  0  0  0  0  0
    4.5218    1.4942    0.0000 C   0  0  0  0  0  0  0  0  0  0  0  0
    4.5218    2.9942    0.0000 Cl  0  0  0  0  0  0  0  0  0  0  0  0
    3.2227    0.7442    0.0000 C   0  0  0  0  0  0  0  0  0  0  0  0
    1.9237    1.4942    0.0000 Cl  0  0  0  0  0  0  0  0  0  0  0  0
    3.2227   -0.7558    0.0000 C   0  0  0  0  0  0  0  0  0  0  0  0
    4.5218   -1.5058    0.0000 C   0  0  0  0  0  0  0  0  0  0  0  0
    1.9237   -1.5058    0.0000 S   0  0  0  0  0  0  0  0  0  0  0  0
    2.6737   -2.8049    0.0000 O   0  0  0  0  0  0  0  0  0  0  0  0
    1.1737   -0.2068    0.0000 O   0  0  0  0  0  0  0  0  0  0  0  0
    0.6246   -2.2558    0.0000 N   0  0  0  0  0  0  0  0  0  0  0  0
  1  2  1  0  0  0  0
  2  3  2  0  0  0  0
  2  4  2  0  0  0  0
  2  5  1  0  0  0  0
  6  5  2  0  0  0  0
  5 12  1  0  0  0  0
  7  6  1  0  0  0  0
  7  8  1  0  0  0  0
  9  7  2  0  0  0  0
  9 10  1  0  0  0  0
 11  9  1  0  0  0  0
 12 11  2  0  0  0  0
 11 13  1  0  0  0  0
 13 14  2  0  0  0  0
 13 15  2  0  0  0  0
 13 16  1  0  0  0  0
M  END
> <Inchi_key>
GJQPMPFPNINLKP-UHFFFAOYSA-N

> <Source>
Mulliner

> <ID>
HT0646

> <H_MFHB>
0

> <CAS>


> <Cholestasis>


> <Name>
dichlorphenamide

> <Class>
0

$$$$