
  -INDIGO-08031710012D

 17 18  0  0  0  0  0  0  0  0999 V2000
    3.7019    2.1373    0.0000 C   0  0  0  0  0  0  0  0  0  0  0  0
    2.9519    0.8382    0.0000 C   0  0  0  0  0  0  0  0  0  0  0  0
    2.2020   -0.4608    0.0000 C   0  0  0  0  0  0  0  0  0  0  0  0
    1.6528    1.5882    0.0000 C   0  0  0  0  0  0  0  0  0  0  0  0
    1.6528    3.0882    0.0000 O   0  0  0  0  0  0  0  0  0  0  0  0
    0.3537    0.8382    0.0000 C   0  0  0  0  0  0  0  0  0  0  0  0
    0.3537   -0.6618    0.0000 C   0  0  0  0  0  0  0  0  0  0  0  0
   -0.9451   -1.4118    0.0000 C   0  0  0  0  0  0  0  0  0  0  0  0
   -2.2443   -0.6618    0.0000 C   0  0  0  0  0  0  0  0  0  0  0  0
   -2.2443    0.8382    0.0000 N   0  0  0  0  0  0  0  0  0  0  0  0
   -0.9451    1.5882    0.0000 C   0  0  0  0  0  0  0  0  0  0  0  0
    4.2510    0.0882    0.0000 C   0  0  0  0  0  0  0  0  0  0  0  0
    4.2510   -1.4118    0.0000 C   0  0  0  0  0  0  0  0  0  0  0  0
    5.5498   -2.1618    0.0000 C   0  0  0  0  0  0  0  0  0  0  0  0
    6.8490   -1.4118    0.0000 C   0  0  0  0  0  0  0  0  0  0  0  0
    6.8490    0.0882    0.0000 N   0  0  0  0  0  0  0  0  0  0  0  0
    5.5498    0.8382    0.0000 C   0  0  0  0  0  0  0  0  0  0  0  0
  1  2  1  0  0  0  0
  2  3  1  0  0  0  0
  2  4  1  0  0  0  0
  2 12  1  0  0  0  0
  4  5  2  0  0  0  0
  4  6  1  0  0  0  0
  7  6  2  0  0  0  0
  6 11  1  0  0  0  0
  8  7  1  0  0  0  0
  9  8  2  0  0  0  0
 10  9  1  0  0  0  0
 11 10  2  0  0  0  0
 13 12  2  0  0  0  0
 12 17  1  0  0  0  0
 14 13  1  0  0  0  0
 15 14  2  0  0  0  0
 16 15  1  0  0  0  0
 17 16  2  0  0  0  0
M  END
> <Inchi_key>
FJLBFSROUSIWMA-UHFFFAOYSA-N

> <Source>
Mulliner , Kotsampasakou

> <ID>
EK0347;HT1383

> <H_MFHB>
0

> <CAS>


> <Cholestasis>
0

> <Name>
metyrapone

> <Class>
0

$$$$