

  -INDIGO-08031710012D

 25 28  0  0  0  0  0  0  0  0999 V2000
    9.7285    4.3068    0.0000 C   0  0  0  0  0  0  0  0  0  0  0  0
    8.9752    5.6039    0.0000 N   0  0  0  0  0  0  0  0  0  0  0  0
    9.7219    6.9048    0.0000 C   0  0  0  0  0  0  0  0  0  0  0  0
    7.4753    5.6001    0.0000 C   0  0  0  0  0  0  0  0  0  0  0  0
    6.7285    4.2992    0.0000 C   0  0  0  0  0  0  0  0  0  0  0  0
    7.3422    2.9304    0.0000 N   0  0  0  0  0  0  0  0  0  0  0  0
    6.2300    1.9239    0.0000 N   0  0  0  0  0  0  0  0  0  0  0  0
    4.9291    2.6706    0.0000 C   0  0  0  0  0  0  0  0  0  0  0  0
    3.5894    1.9956    0.0000 C   0  0  0  0  0  0  0  0  0  0  0  0
    2.2262    2.6213    0.0000 N   0  0  0  0  0  0  0  0  0  0  0  0
    1.8647    4.0771    0.0000 C   0  0  0  0  0  0  0  0  0  0  0  0
    0.3964    4.3840    0.0000 C   0  0  0  0  0  0  0  0  0  0  0  0
   -0.0720    5.8090    0.0000 C   0  0  0  0  0  0  0  0  0  0  0  0
   -1.5402    6.1159    0.0000 C   0  0  0  0  0  0  0  0  0  0  0  0
   -2.5401    4.9977    0.0000 C   0  0  0  0  0  0  0  0  0  0  0  0
   -2.0717    3.5727    0.0000 C   0  0  0  0  0  0  0  0  0  0  0  0
   -0.6034    3.2659    0.0000 C   0  0  0  0  0  0  0  0  0  0  0  0
    2.7803    5.2663    0.0000 C   0  0  0  0  0  0  0  0  0  0  0  0
    2.0068    6.5514    0.0000 C   0  0  0  0  0  0  0  0  0  0  0  0
    2.7330    7.8639    0.0000 C   0  0  0  0  0  0  0  0  0  0  0  0
    1.9594    9.1491    0.0000 Cl  0  0  0  0  0  0  0  0  0  0  0  0
    4.2327    7.8913    0.0000 C   0  0  0  0  0  0  0  0  0  0  0  0
    5.0062    6.6061    0.0000 C   0  0  0  0  0  0  0  0  0  0  0  0
    4.2800    5.2936    0.0000 C   0  0  0  0  0  0  0  0  0  0  0  0
    5.2370    4.1386    0.0000 N   0  0  0  0  0  0  0  0  0  0  0  0
  1  2  1  0  0  0  0
  2  3  1  0  0  0  0
  2  4  1  0  0  0  0
  4  5  1  0  0  0  0
  6  5  2  0  0  0  0
  5 25  1  0  0  0  0
  7  6  1  0  0  0  0
  8  7  2  0  0  0  0
  9  8  1  0  0  0  0
  8 25  1  0  0  0  0
 10  9  1  0  0  0  0
 11 10  2  0  0  0  0
 11 12  1  0  0  0  0
 18 11  1  0  0  0  0
 13 12  2  0  0  0  0
 12 17  1  0  0  0  0
 14 13  1  0  0  0  0
 15 14  2  0  0  0  0
 16 15  1  0  0  0  0
 17 16  2  0  0  0  0
 19 18  1  0  0  0  0
 18 24  2  0  0  0  0
 20 19  2  0  0  0  0
 20 21  1  0  0  0  0
 22 20  1  0  0  0  0
 23 22  2  0  0  0  0
 24 23  1  0  0  0  0
 25 24  1  0  0  0  0
M  END
> <Inchi_key>
GJSLOMWRLALDCT-UHFFFAOYSA-N

> <Source>
Mulliner

> <ID>
HT0078

> <H_MFHB>
0

> <CAS>


> <Cholestasis>


> <Name>
adinazolam

> <Class>
0


$$$$