
  -INDIGO-08031710012D

 27 30  0  0  0  0  0  0  0  0999 V2000
    5.2829   -2.7616    0.0000 C   0  0  0  0  0  0  0  0  0  0  0  0
    4.4268   -1.5299    0.0000 C   0  0  0  0  0  0  0  0  0  0  0  0
    3.6723   -2.8264    0.0000 C   0  0  0  0  0  0  0  0  0  0  0  0
    2.1724   -2.8213    0.0000 C   0  0  0  0  0  0  0  0  0  0  0  0
    1.4179   -4.1178    0.0000 O   0  0  0  0  0  0  0  0  0  0  0  0
    1.4269   -1.5197    0.0000 C   0  0  0  0  0  0  0  0  0  0  0  0
    2.9269   -1.5248    0.0000 F   0  0  0  0  0  0  0  0  0  0  0  0
    2.1811   -0.2232    0.0000 C   0  0  0  0  0  0  0  0  0  0  0  0
    1.4357    1.0784    0.0000 C   0  0  0  0  0  0  0  0  0  0  0  0
   -0.0643    1.0835    0.0000 C   0  0  0  0  0  0  0  0  0  0  0  0
   -0.8188   -0.2130    0.0000 C   0  0  0  0  0  0  0  0  0  0  0  0
   -2.3188   -0.2079    0.0000 C   0  0  0  0  0  0  0  0  0  0  0  0
   -3.0732   -1.5043    0.0000 C   0  0  0  0  0  0  0  0  0  0  0  0
   -4.5732   -1.4992    0.0000 O   0  0  0  0  0  0  0  0  0  0  0  0
   -2.3275   -2.8059    0.0000 C   0  0  0  0  0  0  0  0  0  0  0  0
   -0.8276   -2.8110    0.0000 C   0  0  0  0  0  0  0  0  0  0  0  0
   -0.0733   -1.5146    0.0000 C   0  0  0  0  0  0  0  0  0  0  0  0
    0.6724   -2.8162    0.0000 C   0  0  0  0  0  0  0  0  0  0  0  0
    3.6811   -0.2284    0.0000 C   0  0  0  0  0  0  0  0  0  0  0  0
    4.6888    0.8829    0.0000 C   0  0  0  0  0  0  0  0  0  0  0  0
    6.0571    0.2681    0.0000 C   0  0  0  0  0  0  0  0  0  0  0  0
    5.8952   -1.2231    0.0000 C   0  0  0  0  0  0  0  0  0  0  0  0
    6.3785   -2.6430    0.0000 O   0  0  0  0  0  0  0  0  0  0  0  0
    7.3759   -1.4628    0.0000 C   0  0  0  0  0  0  0  0  0  0  0  0
    7.9085   -2.8650    0.0000 O   0  0  0  0  0  0  0  0  0  0  0  0
    8.3236   -0.3003    0.0000 C   0  0  0  0  0  0  0  0  0  0  0  0
    9.8045   -0.5400    0.0000 O   0  0  0  0  0  0  0  0  0  0  0  0
  1  2  1  0  0  0  0
  3  2  1  0  0  0  0
 19  2  1  0  0  0  0
  2 22  1  0  0  0  0
  4  3  1  0  0  0  0
  4  5  1  0  0  0  0
  6  4  1  0  0  0  0
  6  7  1  0  0  0  0
  6  8  1  0  0  0  0
 17  6  1  0  0  0  0
  8  9  1  0  0  0  0
 19  8  1  0  0  0  0
  9 10  1  0  0  0  0
 10 11  1  0  0  0  0
 12 11  2  0  0  0  0
 11 17  1  0  0  0  0
 13 12  1  0  0  0  0
 13 14  2  0  0  0  0
 15 13  1  0  0  0  0
 16 15  1  0  0  0  0
 17 16  1  0  0  0  0
 17 18  1  0  0  0  0
 20 19  1  0  0  0  0
 21 20  1  0  0  0  0
 22 21  1  0  0  0  0
 22 23  1  0  0  0  0
 22 24  1  0  0  0  0
 24 25  2  0  0  0  0
 24 26  1  0  0  0  0
 26 27  1  0  0  0  0
M  END
> <Inchi_key>
AAXVEMMRQDVLJB-UHFFFAOYSA-N

> <Source>
Mulliner , Kotsampasakou

> <ID>
EK0219;HT0893

> <H_MFHB>
0

> <CAS>


> <Cholestasis>
0

> <Name>
fludrocortisone

> <Class>
0

$$$$