
  -INDIGO-08031710012D

 34 36  0  0  0  0  0  0  0  0999 V2000
    2.2826   -4.0105    0.0000 C   0  0  0  0  0  0  0  0  0  0  0  0
    3.5816   -3.2605    0.0000 C   0  0  0  0  0  0  0  0  0  0  0  0
    4.8808   -4.0105    0.0000 C   0  0  0  0  0  0  0  0  0  0  0  0
    6.1798   -3.2605    0.0000 C   0  0  0  0  0  0  0  0  0  0  0  0
    6.1798   -1.7605    0.0000 C   0  0  0  0  0  0  0  0  0  0  0  0
    4.8808   -1.0105    0.0000 C   0  0  0  0  0  0  0  0  0  0  0  0
    3.5816   -1.7605    0.0000 C   0  0  0  0  0  0  0  0  0  0  0  0
    7.4788   -1.0105    0.0000 C   0  0  0  0  0  0  0  0  0  0  0  0
    8.7777   -1.7605    0.0000 O   0  0  0  0  0  0  0  0  0  0  0  0
    7.4788    0.4896    0.0000 O   0  0  0  0  0  0  0  0  0  0  0  0
    8.7777    1.2396    0.0000 C   0  0  0  0  0  0  0  0  0  0  0  0
   10.0770    0.4896    0.0000 C   0  0  0  0  0  0  0  0  0  0  0  0
   11.3759    1.2396    0.0000 C   0  0  0  0  0  0  0  0  0  0  0  0
   11.3759    2.7394    0.0000 C   0  0  0  0  0  0  0  0  0  0  0  0
   10.0770    3.4894    0.0000 C   0  0  0  0  0  0  0  0  0  0  0  0
    8.7777    2.7394    0.0000 C   0  0  0  0  0  0  0  0  0  0  0  0
    7.4788    3.4894    0.0000 O   0  0  0  0  0  0  0  0  0  0  0  0
    7.4788    4.9895    0.0000 C   0  0  0  0  0  0  0  0  0  0  0  0
    8.7777    5.7395    0.0000 O   0  0  0  0  0  0  0  0  0  0  0  0
    6.1798    5.7395    0.0000 C   0  0  0  0  0  0  0  0  0  0  0  0
    6.1798    7.2395    0.0000 C   0  0  0  0  0  0  0  0  0  0  0  0
    4.8808    7.9895    0.0000 C   0  0  0  0  0  0  0  0  0  0  0  0
    3.5816    7.2395    0.0000 C   0  0  0  0  0  0  0  0  0  0  0  0
    2.2826    7.9895    0.0000 C   0  0  0  0  0  0  0  0  0  0  0  0
    3.5816    5.7395    0.0000 C   0  0  0  0  0  0  0  0  0  0  0  0
    4.8808    4.9895    0.0000 C   0  0  0  0  0  0  0  0  0  0  0  0
   12.6749    3.4894    0.0000 C   0  0  0  0  0  0  0  0  0  0  0  0
   12.6749    4.9895    0.0000 O   0  0  0  0  0  0  0  0  0  0  0  0
   13.9739    2.7394    0.0000 C   0  0  0  0  0  0  0  0  0  0  0  0
   15.2729    3.4894    0.0000 N   0  0  0  0  0  0  0  0  0  0  0  0
   16.5721    2.7394    0.0000 C   0  0  0  0  0  0  0  0  0  0  0  0
   17.3221    4.0386    0.0000 C   0  0  0  0  0  0  0  0  0  0  0  0
   17.8711    1.9896    0.0000 C   0  0  0  0  0  0  0  0  0  0  0  0
   15.8221    1.4405    0.0000 C   0  0  0  0  0  0  0  0  0  0  0  0
  1  2  1  0  0  0  0
  3  2  2  0  0  0  0
  2  7  1  0  0  0  0
  4  3  1  0  0  0  0
  5  4  2  0  0  0  0
  6  5  1  0  0  0  0
  5  8  1  0  0  0  0
  7  6  2  0  0  0  0
  8  9  2  0  0  0  0
  8 10  1  0  0  0  0
 10 11  1  0  0  0  0
 12 11  2  0  0  0  0
 11 16  1  0  0  0  0
 13 12  1  0  0  0  0
 14 13  2  0  0  0  0
 15 14  1  0  0  0  0
 14 27  1  0  0  0  0
 16 15  2  0  0  0  0
 16 17  1  0  0  0  0
 17 18  1  0  0  0  0
 18 19  2  0  0  0  0
 18 20  1  0  0  0  0
 21 20  2  0  0  0  0
 20 26  1  0  0  0  0
 22 21  1  0  0  0  0
 23 22  2  0  0  0  0
 23 24  1  0  0  0  0
 25 23  1  0  0  0  0
 26 25  2  0  0  0  0
 27 28  1  0  0  0  0
 27 29  1  0  0  0  0
 29 30  1  0  0  0  0
 30 31  1  0  0  0  0
 31 32  1  0  0  0  0
 31 33  1  0  0  0  0
 31 34  1  0  0  0  0
M  END
> <Inchi_key>
FZGVEKPRDOIXJY-UHFFFAOYSA-N

> <Source>
Mulliner , Kotsampasakou

> <ID>
EK0068;HT0294

> <H_MFHB>
0

> <CAS>


> <Cholestasis>
0

> <Name>
bitolterol mesylate;bitolterol

> <Class>
0

$$$$