

  -INDIGO-08031710012D

 24 26  0  0  0  0  0  0  0  0999 V2000
    7.5947    5.9517    0.0000 O   0  0  0  0  0  0  0  0  0  0  0  0
    7.5947    4.4518    0.0000 C   0  0  0  0  0  0  0  0  0  0  0  0
    8.8938    3.7018    0.0000 C   0  0  0  0  0  0  0  0  0  0  0  0
   10.1928    4.4518    0.0000 C   0  0  0  0  0  0  0  0  0  0  0  0
   11.4919    3.7018    0.0000 N   0  0  0  0  0  0  0  0  0  0  0  0
    6.2958    3.7018    0.0000 C   0  0  0  0  0  0  0  0  0  0  0  0
    4.9968    4.4518    0.0000 C   0  0  0  0  0  0  0  0  0  0  0  0
    6.2958    2.2019    0.0000 C   0  0  0  0  0  0  0  0  0  0  0  0
    4.9968    5.9517    0.0000 N   0  0  0  0  0  0  0  0  0  0  0  0
    3.6977    3.7018    0.0000 C   0  0  0  0  0  0  0  0  0  0  0  0
    4.9968    1.4517    0.0000 C   0  0  0  0  0  0  0  0  0  0  0  0
    7.5947    1.4517    0.0000 C   0  0  0  0  0  0  0  0  0  0  0  0
    3.6977    6.7019    0.0000 C   0  0  0  0  0  0  0  0  0  0  0  0
    3.6977    2.2019    0.0000 C   0  0  0  0  0  0  0  0  0  0  0  0
    4.9968   -0.0482    0.0000 N   0  0  0  0  0  0  0  0  0  0  0  0
    7.5947   -0.0482    0.0000 O   0  0  0  0  0  0  0  0  0  0  0  0
    8.8938    2.2019    0.0000 C   0  0  0  0  0  0  0  0  0  0  0  0
    3.6977    8.2018    0.0000 C   0  0  0  0  0  0  0  0  0  0  0  0
    3.6977   -0.7982    0.0000 C   0  0  0  0  0  0  0  0  0  0  0  0
   10.1928    1.4517    0.0000 C   0  0  0  0  0  0  0  0  0  0  0  0
    2.3987    8.9518    0.0000 N   0  0  0  0  0  0  0  0  0  0  0  0
    2.3987   -0.0482    0.0000 C   0  0  0  0  0  0  0  0  0  0  0  0
   11.4919    2.2019    0.0000 C   0  0  0  0  0  0  0  0  0  0  0  0
    1.0996   -0.7982    0.0000 N   0  0  0  0  0  0  0  0  0  0  0  0
  1  2  2  0  0  0  0
  3  2  1  0  0  0  0
  3  4  2  0  0  0  0
  4  5  1  0  0  0  0
  2  6  1  0  0  0  0
  7  6  2  0  0  0  0
  6  8  1  0  0  0  0
  7  9  1  0  0  0  0
 10  7  1  0  0  0  0
  8 11  2  0  0  0  0
  8 12  1  0  0  0  0
  9 13  1  0  0  0  0
 14 10  2  0  0  0  0
 11 14  1  0  0  0  0
 11 15  1  0  0  0  0
 12 16  1  0  0  0  0
 12 17  2  0  0  0  0
 13 18  1  0  0  0  0
 15 19  2  0  0  0  0
 20 17  1  0  0  0  0
 17  3  1  0  0  0  0
 18 21  1  0  0  0  0
 19 22  1  0  0  0  0
 23 20  2  0  0  0  0
 22 24  1  0  0  0  0
  5 23  1  0  0  0  0
M  END
> <Inchi_key>
FZFKIQNUZGMVEX-YXSASFKJSA-N

> <Source>
Mulliner

> <ID>
HT1701

> <H_MFHB>
0

> <CAS>


> <Cholestasis>


> <Name>
pixantrone dimaleate

> <Class>
0


$$$$