
  -INDIGO-08031710012D

 18 19  0  0  0  0  0  0  0  0999 V2000
    2.6146    1.5096    0.0000 C   0  0  0  0  0  0  0  0  0  0  0  0
    1.8645    0.2105    0.0000 C   0  0  0  0  0  0  0  0  0  0  0  0
    2.6146   -1.0885    0.0000 C   0  0  0  0  0  0  0  0  0  0  0  0
    2.6146   -2.5885    0.0000 C   0  0  0  0  0  0  0  0  0  0  0  0
    1.3156   -3.3385    0.0000 O   0  0  0  0  0  0  0  0  0  0  0  0
    3.9136   -3.3385    0.0000 N   0  0  0  0  0  0  0  0  0  0  0  0
    5.2127   -2.5885    0.0000 C   0  0  0  0  0  0  0  0  0  0  0  0
    6.5118   -3.3385    0.0000 O   0  0  0  0  0  0  0  0  0  0  0  0
    5.2127   -1.0885    0.0000 N   0  0  0  0  0  0  0  0  0  0  0  0
    6.5118   -0.3385    0.0000 C   0  0  0  0  0  0  0  0  0  0  0  0
    3.9136   -0.3385    0.0000 C   0  0  0  0  0  0  0  0  0  0  0  0
    3.9136    1.1615    0.0000 O   0  0  0  0  0  0  0  0  0  0  0  0
    1.1146   -1.0885    0.0000 C   0  0  0  0  0  0  0  0  0  0  0  0
    0.3646   -2.3876    0.0000 C   0  0  0  0  0  0  0  0  0  0  0  0
   -1.1354   -2.3876    0.0000 C   0  0  0  0  0  0  0  0  0  0  0  0
   -1.8854   -1.0885    0.0000 C   0  0  0  0  0  0  0  0  0  0  0  0
   -1.1354    0.2105    0.0000 C   0  0  0  0  0  0  0  0  0  0  0  0
    0.3646    0.2105    0.0000 C   0  0  0  0  0  0  0  0  0  0  0  0
  1  2  1  0  0  0  0
  2  3  1  0  0  0  0
  4  3  1  0  0  0  0
  3 11  1  0  0  0  0
  3 13  1  0  0  0  0
  4  5  2  0  0  0  0
  6  4  1  0  0  0  0
  7  6  1  0  0  0  0
  7  8  2  0  0  0  0
  9  7  1  0  0  0  0
  9 10  1  0  0  0  0
 11  9  1  0  0  0  0
 11 12  2  0  0  0  0
 14 13  2  0  0  0  0
 13 18  1  0  0  0  0
 15 14  1  0  0  0  0
 16 15  2  0  0  0  0
 17 16  1  0  0  0  0
 18 17  2  0  0  0  0
M  END
> <Inchi_key>
ALARQZQTBTVLJV-UHFFFAOYSA-N

> <Source>
Mulliner

> <ID>
HT1309

> <H_MFHB>
0

> <CAS>


> <Cholestasis>


> <Name>
mephobarbital

> <Class>
0

$$$$