
  -INDIGO-08031710012D

 10  9  0  0  0  0  0  0  0  0999 V2000
    2.5245    1.2255    0.0000 O   0  0  0  0  0  0  0  0  0  0  0  0
    2.5245   -0.2745    0.0000 C   0  0  0  0  0  0  0  0  0  0  0  0
    1.2255   -1.0245    0.0000 C   0  0  0  0  0  0  0  0  0  0  0  0
    1.2255   -2.5245    0.0000 O   0  0  0  0  0  0  0  0  0  0  0  0
   -0.0736   -0.2745    0.0000 C   0  0  0  0  0  0  0  0  0  0  0  0
   -1.3726   -1.0245    0.0000 O   0  0  0  0  0  0  0  0  0  0  0  0
   -0.0736    1.2255    0.0000 O   0  0  0  0  0  0  0  0  0  0  0  0
    3.8236   -1.0245    0.0000 C   0  0  0  0  0  0  0  0  0  0  0  0
    3.8236   -2.5245    0.0000 O   0  0  0  0  0  0  0  0  0  0  0  0
    5.1226   -0.2745    0.0000 O   0  0  0  0  0  0  0  0  0  0  0  0
  1  2  1  0  0  0  0
  2  3  1  0  0  0  0
  2  8  1  0  0  0  0
  3  4  1  0  0  0  0
  3  5  1  0  0  0  0
  5  6  2  0  0  0  0
  5  7  1  0  0  0  0
  8  9  2  0  0  0  0
  8 10  1  0  0  0  0
M  END
> <Inchi_key>
FEWJPZIEWOKRBE-UHFFFAOYSA-N

> <Source>
Mulliner

> <ID>
HT2625

> <H_MFHB>
0

> <CAS>


> <Cholestasis>


> <Name>


> <Class>
0

$$$$