
  -INDIGO-08031710012D

 30 31  0  0  0  0  0  0  0  0999 V2000
   18.9877    2.8969    0.0000 C   0  0  0  0  0  0  0  0  0  0  0  0
   17.6886    3.6468    0.0000 C   0  0  0  0  0  0  0  0  0  0  0  0
   16.3895    2.8969    0.0000 C   0  0  0  0  0  0  0  0  0  0  0  0
   15.0904    3.6468    0.0000 C   0  0  0  0  0  0  0  0  0  0  0  0
   15.0904    5.1468    0.0000 O   0  0  0  0  0  0  0  0  0  0  0  0
   13.7915    2.8969    0.0000 O   0  0  0  0  0  0  0  0  0  0  0  0
   12.4924    3.6468    0.0000 C   0  0  0  0  0  0  0  0  0  0  0  0
   11.1933    2.8969    0.0000 O   0  0  0  0  0  0  0  0  0  0  0  0
    9.8945    3.6468    0.0000 C   0  0  0  0  0  0  0  0  0  0  0  0
    8.5954    2.8969    0.0000 C   0  0  0  0  0  0  0  0  0  0  0  0
    7.2963    3.6468    0.0000 C   0  0  0  0  0  0  0  0  0  0  0  0
    5.9974    2.8969    0.0000 C   0  0  0  0  0  0  0  0  0  0  0  0
    5.9974    1.3968    0.0000 C   0  0  0  0  0  0  0  0  0  0  0  0
    4.6983    0.6468    0.0000 C   0  0  0  0  0  0  0  0  0  0  0  0
    7.2963    0.6468    0.0000 N   0  0  0  0  0  0  0  0  0  0  0  0
    8.5954    1.3968    0.0000 C   0  0  0  0  0  0  0  0  0  0  0  0
    9.8945    0.6468    0.0000 C   0  0  0  0  0  0  0  0  0  0  0  0
    4.5200    3.1573    0.0000 C   0  0  0  0  0  0  0  0  0  0  0  0
    3.5559    2.0082    0.0000 O   0  0  0  0  0  0  0  0  0  0  0  0
    4.0070    4.5668    0.0000 O   0  0  0  0  0  0  0  0  0  0  0  0
    2.5298    4.8272    0.0000 C   0  0  0  0  0  0  0  0  0  0  0  0
    7.5567    5.1241    0.0000 C   0  0  0  0  0  0  0  0  0  0  0  0
    9.0341    5.3845    0.0000 C   0  0  0  0  0  0  0  0  0  0  0  0
    9.5469    6.7940    0.0000 C   0  0  0  0  0  0  0  0  0  0  0  0
    8.5828    7.9430    0.0000 C   0  0  0  0  0  0  0  0  0  0  0  0
    7.1057    7.6826    0.0000 C   0  0  0  0  0  0  0  0  0  0  0  0
    6.1413    8.8316    0.0000 Cl  0  0  0  0  0  0  0  0  0  0  0  0
    6.5926    6.2731    0.0000 C   0  0  0  0  0  0  0  0  0  0  0  0
    5.1154    6.5335    0.0000 Cl  0  0  0  0  0  0  0  0  0  0  0  0
    9.8945    5.1468    0.0000 O   0  0  0  0  0  0  0  0  0  0  0  0
  1  2  1  0  0  0  0
  2  3  1  0  0  0  0
  3  4  1  0  0  0  0
  4  5  2  0  0  0  0
  4  6  1  0  0  0  0
  6  7  1  0  0  0  0
  7  8  1  0  0  0  0
  8  9  1  0  0  0  0
  9 10  2  0  0  0  0
  9 30  1  0  0  0  0
 11 10  1  0  0  0  0
 10 16  1  0  0  0  0
 12 11  1  0  0  0  0
 11 22  1  0  0  0  0
 13 12  2  0  0  0  0
 12 18  1  0  0  0  0
 13 14  1  0  0  0  0
 15 13  1  0  0  0  0
 16 15  2  0  0  0  0
 16 17  1  0  0  0  0
 18 19  2  0  0  0  0
 18 20  1  0  0  0  0
 20 21  1  0  0  0  0
 23 22  2  0  0  0  0
 22 28  1  0  0  0  0
 24 23  1  0  0  0  0
 25 24  2  0  0  0  0
 26 25  1  0  0  0  0
 26 27  1  0  0  0  0
 28 26  2  0  0  0  0
 28 29  1  0  0  0  0
M  END
> <Inchi_key>
FVDXGSXNCFANQJ-HEHNFIMWSA-N

> <Source>
Mulliner

> <ID>
HT0508

> <H_MFHB>
0

> <CAS>


> <Cholestasis>


> <Name>
clevidipine butyrate;clevidipine

> <Class>
0

$$$$