
  -INDIGO-08031710012D

 25 27  0  0  0  0  0  0  0  0999 V2000
   13.7684    0.0000    0.0000 C   0  0  0  0  0  0  0  0  0  0  0  0
   12.2684    0.0000    0.0000 N   0  0  0  0  0  0  0  0  0  0  0  0
   13.0184   -1.2990    0.0000 C   0  0  0  0  0  0  0  0  0  0  0  0
   12.2684    1.5000    0.0000 C   0  0  0  0  0  0  0  0  0  0  0  0
   10.9693    2.2500    0.0000 C   0  0  0  0  0  0  0  0  0  0  0  0
    9.6704    1.5000    0.0000 C   0  0  0  0  0  0  0  0  0  0  0  0
    9.6704    0.0000    0.0000 C   0  0  0  0  0  0  0  0  0  0  0  0
   10.9693   -0.7500    0.0000 C   0  0  0  0  0  0  0  0  0  0  0  0
    8.3713   -0.7500    0.0000 O   0  0  0  0  0  0  0  0  0  0  0  0
    7.0722    0.0000    0.0000 C   0  0  0  0  0  0  0  0  0  0  0  0
    7.0722    1.5000    0.0000 O   0  0  0  0  0  0  0  0  0  0  0  0
    5.7732   -0.7500    0.0000 C   0  0  0  0  0  0  0  0  0  0  0  0
    6.5232   -2.0490    0.0000 O   0  0  0  0  0  0  0  0  0  0  0  0
    4.4741   -1.5000    0.0000 C   0  0  0  0  0  0  0  0  0  0  0  0
    3.1750   -0.7500    0.0000 C   0  0  0  0  0  0  0  0  0  0  0  0
    1.8761   -1.5000    0.0000 C   0  0  0  0  0  0  0  0  0  0  0  0
    1.8761   -3.0000    0.0000 C   0  0  0  0  0  0  0  0  0  0  0  0
    3.1750   -3.7500    0.0000 C   0  0  0  0  0  0  0  0  0  0  0  0
    4.4741   -3.0000    0.0000 C   0  0  0  0  0  0  0  0  0  0  0  0
    5.0232    0.5490    0.0000 C   0  0  0  0  0  0  0  0  0  0  0  0
    5.7732    1.8481    0.0000 C   0  0  0  0  0  0  0  0  0  0  0  0
    5.0232    3.1471    0.0000 C   0  0  0  0  0  0  0  0  0  0  0  0
    3.5233    3.1471    0.0000 C   0  0  0  0  0  0  0  0  0  0  0  0
    2.7733    1.8481    0.0000 C   0  0  0  0  0  0  0  0  0  0  0  0
    3.5233    0.5490    0.0000 C   0  0  0  0  0  0  0  0  0  0  0  0
  1  2  1  0  0  0  0
  2  3  1  0  0  0  0
  4  2  1  0  0  0  0
  2  8  1  0  0  0  0
  5  4  1  0  0  0  0
  6  5  1  0  0  0  0
  7  6  1  0  0  0  0
  8  7  1  0  0  0  0
  7  9  1  0  0  0  0
  9 10  1  0  0  0  0
 10 11  2  0  0  0  0
 10 12  1  0  0  0  0
 12 13  1  0  0  0  0
 12 14  1  0  0  0  0
 12 20  1  0  0  0  0
 15 14  2  0  0  0  0
 14 19  1  0  0  0  0
 16 15  1  0  0  0  0
 17 16  2  0  0  0  0
 18 17  1  0  0  0  0
 19 18  2  0  0  0  0
 21 20  2  0  0  0  0
 20 25  1  0  0  0  0
 22 21  1  0  0  0  0
 23 22  2  0  0  0  0
 24 23  1  0  0  0  0
 25 24  2  0  0  0  0
M  CHG  1   2   1
M  END
> <Inchi_key>
GKNPSSNBBWDAGH-UHFFFAOYSA-N

> <Source>
Mulliner

> <ID>
HT1304

> <H_MFHB>
0

> <CAS>


> <Cholestasis>


> <Name>
mepenzolate

> <Class>
0

$$$$