
  -INDIGO-08031710012D

 43 47  0  0  0  0  0  0  0  0999 V2000
    0.0692   -0.4392    0.0000 C   0  0  0  0  0  0  0  0  0  0  0  0
    1.4967    0.0214    0.0000 C   0  0  0  0  0  0  0  0  0  0  0  0
    1.8117    1.4879    0.0000 C   0  0  0  0  0  0  0  0  0  0  0  0
    3.2392    1.9483    0.0000 C   0  0  0  0  0  0  0  0  0  0  0  0
    4.3518    0.9422    0.0000 C   0  0  0  0  0  0  0  0  0  0  0  0
    5.7793    1.4026    0.0000 C   0  0  0  0  0  0  0  0  0  0  0  0
    6.0947    2.8691    0.0000 C   0  0  0  0  0  0  0  0  0  0  0  0
    6.8918    0.3965    0.0000 C   0  0  0  0  0  0  0  0  0  0  0  0
    6.7320   -1.0950    0.0000 C   0  0  0  0  0  0  0  0  0  0  0  0
    8.1011   -1.7080    0.0000 C   0  0  0  0  0  0  0  0  0  0  0  0
    9.1068   -0.5955    0.0000 C   0  0  0  0  0  0  0  0  0  0  0  0
   10.6068   -0.5988    0.0000 C   0  0  0  0  0  0  0  0  0  0  0  0
   11.3541   -1.8995    0.0000 C   0  0  0  0  0  0  0  0  0  0  0  0
   12.8542   -1.9027    0.0000 C   0  0  0  0  0  0  0  0  0  0  0  0
   13.6069   -0.6053    0.0000 C   0  0  0  0  0  0  0  0  0  0  0  0
   15.1070   -0.6086    0.0000 C   0  0  0  0  0  0  0  0  0  0  0  0
   15.8597    0.6889    0.0000 C   0  0  0  0  0  0  0  0  0  0  0  0
   15.1128    1.9896    0.0000 C   0  0  0  0  0  0  0  0  0  0  0  0
   13.6128    1.9927    0.0000 C   0  0  0  0  0  0  0  0  0  0  0  0
   12.8596    0.6952    0.0000 C   0  0  0  0  0  0  0  0  0  0  0  0
   12.1127    1.9959    0.0000 C   0  0  0  0  0  0  0  0  0  0  0  0
   11.3600    0.6986    0.0000 C   0  0  0  0  0  0  0  0  0  0  0  0
   10.6127    1.9993    0.0000 C   0  0  0  0  0  0  0  0  0  0  0  0
    9.1127    2.0026    0.0000 C   0  0  0  0  0  0  0  0  0  0  0  0
    8.3599    0.7051    0.0000 C   0  0  0  0  0  0  0  0  0  0  0  0
    7.5023    1.9357    0.0000 C   0  0  0  0  0  0  0  0  0  0  0  0
   17.3597    0.6855    0.0000 O   0  0  0  0  0  0  0  0  0  0  0  0
   18.1125    1.9829    0.0000 C   0  0  0  0  0  0  0  0  0  0  0  0
   17.3656    3.2836    0.0000 O   0  0  0  0  0  0  0  0  0  0  0  0
   19.6125    1.9797    0.0000 C   0  0  0  0  0  0  0  0  0  0  0  0
   21.1126    1.9764    0.0000 C   0  0  0  0  0  0  0  0  0  0  0  0
   19.6094    0.4797    0.0000 C   0  0  0  0  0  0  0  0  0  0  0  0
   19.6160    3.4797    0.0000 O   0  0  0  0  0  0  0  0  0  0  0  0
   20.9165    4.2268    0.0000 C   0  0  0  0  0  0  0  0  0  0  0  0
   20.9200    5.7268    0.0000 C   0  0  0  0  0  0  0  0  0  0  0  0
   22.2204    6.4740    0.0000 C   0  0  0  0  0  0  0  0  0  0  0  0
   23.5178    5.7211    0.0000 C   0  0  0  0  0  0  0  0  0  0  0  0
   24.8186    6.4682    0.0000 Cl  0  0  0  0  0  0  0  0  0  0  0  0
   23.5146    4.2212    0.0000 C   0  0  0  0  0  0  0  0  0  0  0  0
   22.2138    3.4741    0.0000 C   0  0  0  0  0  0  0  0  0  0  0  0
    0.6991    2.4941    0.0000 C   0  0  0  0  0  0  0  0  0  0  0  0
   -0.7284    2.0337    0.0000 C   0  0  0  0  0  0  0  0  0  0  0  0
    1.0141    3.9605    0.0000 C   0  0  0  0  0  0  0  0  0  0  0  0
  1  2  1  0  0  0  0
  2  3  1  0  0  0  0
  3  4  1  0  0  0  0
  3 41  1  0  0  0  0
  4  5  1  0  0  0  0
  5  6  1  0  0  0  0
  6  7  1  0  0  0  0
  6  8  1  0  0  0  0
  9  8  1  0  0  0  0
  8 25  1  0  0  0  0
 10  9  1  0  0  0  0
 11 10  1  0  0  0  0
 12 11  1  0  0  0  0
 11 25  1  0  0  0  0
 13 12  1  0  0  0  0
 12 22  1  0  0  0  0
 14 13  1  0  0  0  0
 15 14  2  0  0  0  0
 16 15  1  0  0  0  0
 15 20  1  0  0  0  0
 17 16  1  0  0  0  0
 18 17  1  0  0  0  0
 17 27  1  0  0  0  0
 19 18  1  0  0  0  0
 20 19  1  0  0  0  0
 20 21  1  0  0  0  0
 22 20  1  0  0  0  0
 23 22  1  0  0  0  0
 24 23  1  0  0  0  0
 25 24  1  0  0  0  0
 25 26  1  0  0  0  0
 27 28  1  0  0  0  0
 28 29  2  0  0  0  0
 28 30  1  0  0  0  0
 30 31  1  0  0  0  0
 30 32  1  0  0  0  0
 30 33  1  0  0  0  0
 33 34  1  0  0  0  0
 35 34  2  0  0  0  0
 34 40  1  0  0  0  0
 36 35  1  0  0  0  0
 37 36  2  0  0  0  0
 37 38  1  0  0  0  0
 39 37  1  0  0  0  0
 40 39  2  0  0  0  0
 41 42  1  0  0  0  0
 41 43  1  0  0  0  0
M  END
> <Inchi_key>
AKGJIVJDHCUPMI-UHFFFAOYSA-N

> <Source>
Mulliner

> <ID>
HT1895

> <H_MFHB>
0

> <CAS>
55902-94-8

> <Cholestasis>


> <Name>
sitofibrate

> <Class>
0

$$$$