

  -INDIGO-08031710012D

 30 31  0  0  0  0  0  0  0  0999 V2000
   16.3504    1.6811    0.0000 C   0  0  0  0  0  0  0  0  0  0  0  0
   15.0514    2.4311    0.0000 O   0  0  0  0  0  0  0  0  0  0  0  0
   13.7525    1.6811    0.0000 C   0  0  0  0  0  0  0  0  0  0  0  0
   12.4532    2.4311    0.0000 C   0  0  0  0  0  0  0  0  0  0  0  0
   11.1543    1.6811    0.0000 O   0  0  0  0  0  0  0  0  0  0  0  0
    9.8553    2.4311    0.0000 C   0  0  0  0  0  0  0  0  0  0  0  0
    8.5561    1.6811    0.0000 C   0  0  0  0  0  0  0  0  0  0  0  0
    7.2571    2.4311    0.0000 C   0  0  0  0  0  0  0  0  0  0  0  0
    5.9581    1.6811    0.0000 C   0  0  0  0  0  0  0  0  0  0  0  0
    5.9581    0.1811    0.0000 C   0  0  0  0  0  0  0  0  0  0  0  0
    4.6592   -0.5689    0.0000 C   0  0  0  0  0  0  0  0  0  0  0  0
    7.2571   -0.5689    0.0000 N   0  0  0  0  0  0  0  0  0  0  0  0
    8.5561    0.1811    0.0000 C   0  0  0  0  0  0  0  0  0  0  0  0
    9.8553   -0.5689    0.0000 C   0  0  0  0  0  0  0  0  0  0  0  0
    4.6592    2.4311    0.0000 C   0  0  0  0  0  0  0  0  0  0  0  0
    4.6592    3.9312    0.0000 O   0  0  0  0  0  0  0  0  0  0  0  0
    3.3602    1.6811    0.0000 O   0  0  0  0  0  0  0  0  0  0  0  0
    2.0610    2.4311    0.0000 C   0  0  0  0  0  0  0  0  0  0  0  0
    0.7620    1.6811    0.0000 C   0  0  0  0  0  0  0  0  0  0  0  0
    2.0610    3.9312    0.0000 C   0  0  0  0  0  0  0  0  0  0  0  0
    7.2571    3.9312    0.0000 C   0  0  0  0  0  0  0  0  0  0  0  0
    5.9581    4.6811    0.0000 C   0  0  0  0  0  0  0  0  0  0  0  0
    5.9581    6.1811    0.0000 C   0  0  0  0  0  0  0  0  0  0  0  0
    7.2571    6.9312    0.0000 C   0  0  0  0  0  0  0  0  0  0  0  0
    8.5561    6.1811    0.0000 C   0  0  0  0  0  0  0  0  0  0  0  0
    8.5561    4.6811    0.0000 C   0  0  0  0  0  0  0  0  0  0  0  0
    9.8553    6.9312    0.0000 N   0  0  0  0  0  0  0  0  0  0  0  0
   11.1543    6.1811    0.0000 O   0  0  0  0  0  0  0  0  0  0  0  0
    9.8553    8.4311    0.0000 O   0  0  0  0  0  0  0  0  0  0  0  0
    9.8553    3.9312    0.0000 O   0  0  0  0  0  0  0  0  0  0  0  0
  1  2  1  0  0  0  0
  2  3  1  0  0  0  0
  3  4  1  0  0  0  0
  4  5  1  0  0  0  0
  5  6  1  0  0  0  0
  6  7  2  0  0  0  0
  6 30  1  0  0  0  0
  8  7  1  0  0  0  0
  7 13  1  0  0  0  0
  9  8  1  0  0  0  0
  8 21  1  0  0  0  0
 10  9  2  0  0  0  0
  9 15  1  0  0  0  0
 10 11  1  0  0  0  0
 12 10  1  0  0  0  0
 13 12  2  0  0  0  0
 13 14  1  0  0  0  0
 15 16  2  0  0  0  0
 15 17  1  0  0  0  0
 17 18  1  0  0  0  0
 18 19  1  0  0  0  0
 18 20  1  0  0  0  0
 22 21  2  0  0  0  0
 21 26  1  0  0  0  0
 23 22  1  0  0  0  0
 24 23  2  0  0  0  0
 25 24  1  0  0  0  0
 26 25  2  0  0  0  0
 25 27  1  0  0  0  0
 27 28  2  0  0  0  0
 27 29  1  0  0  0  0
M  CHG  2  27   1  29  -1
M  END
> <Inchi_key>
FXLASALIDJKUIQ-LVZFUZTISA-N

> <Source>
Mulliner

> <ID>
HT1496

> <H_MFHB>
0

> <CAS>
66085-59-4

> <Cholestasis>


> <Name>
nimodipine

> <Class>
0


$$$$