
  -INDIGO-08031710012D

 26 28  0  0  0  0  0  0  0  0999 V2000
   -0.2994    2.0103    0.0000 C   0  0  0  0  0  0  0  0  0  0  0  0
    1.1355    2.4474    0.0000 C   0  0  0  0  0  0  0  0  0  0  0  0
    0.0947    3.5275    0.0000 C   0  0  0  0  0  0  0  0  0  0  0  0
    2.2938    3.4003    0.0000 S   0  0  0  0  0  0  0  0  0  0  0  0
    3.5581    2.5931    0.0000 C   0  0  0  0  0  0  0  0  0  0  0  0
    5.0100    2.2160    0.0000 C   0  0  0  0  0  0  0  0  0  0  0  0
    6.3032    2.9760    0.0000 N   0  0  0  0  0  0  0  0  0  0  0  0
    7.6079    2.2360    0.0000 C   0  0  0  0  0  0  0  0  0  0  0  0
    7.6196    0.7360    0.0000 O   0  0  0  0  0  0  0  0  0  0  0  0
    8.9013    2.9960    0.0000 C   0  0  0  0  0  0  0  0  0  0  0  0
    8.8896    4.4959    0.0000 C   0  0  0  0  0  0  0  0  0  0  0  0
    7.5849    5.2359    0.0000 O   0  0  0  0  0  0  0  0  0  0  0  0
   10.1831    5.2559    0.0000 O   0  0  0  0  0  0  0  0  0  0  0  0
   10.2060    2.2560    0.0000 C   0  0  0  0  0  0  0  0  0  0  0  0
   11.4992    3.0160    0.0000 C   0  0  0  0  0  0  0  0  0  0  0  0
   12.8039    2.2760    0.0000 C   0  0  0  0  0  0  0  0  0  0  0  0
   12.8156    0.7760    0.0000 C   0  0  0  0  0  0  0  0  0  0  0  0
   11.5224    0.0160    0.0000 C   0  0  0  0  0  0  0  0  0  0  0  0
   10.2175    0.7559    0.0000 C   0  0  0  0  0  0  0  0  0  0  0  0
    4.6329    0.7643    0.0000 C   0  0  0  0  0  0  0  0  0  0  0  0
    5.3928   -0.5291    0.0000 O   0  0  0  0  0  0  0  0  0  0  0  0
    3.1810    1.1412    0.0000 N   0  0  0  0  0  0  0  0  0  0  0  0
    1.6838    1.0512    0.0000 C   0  0  0  0  0  0  0  0  0  0  0  0
    0.8766   -0.2130    0.0000 C   0  0  0  0  0  0  0  0  0  0  0  0
   -0.6219   -0.1461    0.0000 O   0  0  0  0  0  0  0  0  0  0  0  0
    1.5678   -1.5443    0.0000 O   0  0  0  0  0  0  0  0  0  0  0  0
  1  2  1  0  0  0  0
  2  3  1  0  0  0  0
  4  2  1  0  0  0  0
  2 23  1  0  0  0  0
  5  4  1  0  0  0  0
  6  5  1  0  0  0  0
  5 22  1  0  0  0  0
  6  7  1  0  0  0  0
 20  6  1  0  0  0  0
  7  8  1  0  0  0  0
  8  9  2  0  0  0  0
  8 10  1  0  0  0  0
 10 11  1  0  0  0  0
 10 14  1  0  0  0  0
 11 12  2  0  0  0  0
 11 13  1  0  0  0  0
 15 14  2  0  0  0  0
 14 19  1  0  0  0  0
 16 15  1  0  0  0  0
 17 16  2  0  0  0  0
 18 17  1  0  0  0  0
 19 18  2  0  0  0  0
 20 21  2  0  0  0  0
 22 20  1  0  0  0  0
 23 22  1  0  0  0  0
 23 24  1  0  0  0  0
 24 25  2  0  0  0  0
 24 26  1  0  0  0  0
M  END
> <Inchi_key>
FPPNZSSZRUTDAP-UHFFFAOYSA-N

> <Source>
Mulliner , Kotsampasakou

> <ID>
EK0088;HT0373

> <H_MFHB>
0

> <CAS>


> <Cholestasis>
0

> <Name>
carbenicillin disodium;carbenicillin

> <Class>
0

$$$$