
  -INDIGO-08031709442D

 29 32  0  0  0  0  0  0  0  0999 V2000
   16.1138   -9.2718    0.0000 Cl  0  0  0  0  0  0  0  0  0  0  0  0
   15.3601   -7.9749    0.0000 C   0  0  0  0  0  0  0  0  0  0  0  0
   13.8601   -7.9793    0.0000 C   0  0  0  0  0  0  0  0  0  0  0  0
   13.1061   -6.6825    0.0000 N   0  0  0  0  0  0  0  0  0  0  0  0
   13.8524   -5.3813    0.0000 C   0  0  0  0  0  0  0  0  0  0  0  0
   15.3524   -5.3769    0.0000 C   0  0  0  0  0  0  0  0  0  0  0  0
   16.0986   -4.0756    0.0000 Cl  0  0  0  0  0  0  0  0  0  0  0  0
   11.6061   -6.6869    0.0000 C   0  0  0  0  0  0  0  0  0  0  0  0
   10.8524   -5.3901    0.0000 O   0  0  0  0  0  0  0  0  0  0  0  0
    9.3524   -5.3945    0.0000 C   0  0  0  0  0  0  0  0  0  0  0  0
    8.5986   -4.0977    0.0000 C   0  0  0  0  0  0  0  0  0  0  0  0
    7.0986   -4.1021    0.0000 C   0  0  0  0  0  0  0  0  0  0  0  0
    6.3449   -2.8053    0.0000 C   0  0  0  0  0  0  0  0  0  0  0  0
    4.8449   -2.8097    0.0000 C   0  0  0  0  0  0  0  0  0  0  0  0
    4.0986   -4.1109    0.0000 C   0  0  0  0  0  0  0  0  0  0  0  0
    2.5986   -4.1153    0.0000 C   0  0  0  0  0  0  0  0  0  0  0  0
    1.5915   -3.0036    0.0000 C   0  0  0  0  0  0  0  0  0  0  0  0
    0.2231   -3.6177    0.0000 C   0  0  0  0  0  0  0  0  0  0  0  0
    0.3842   -5.1090    0.0000 C   0  0  0  0  0  0  0  0  0  0  0  0
   -0.7275   -6.1160    0.0000 O   0  0  0  0  0  0  0  0  0  0  0  0
    1.8523   -5.4166    0.0000 C   0  0  0  0  0  0  0  0  0  0  0  0
    2.6063   -6.7134    0.0000 C   0  0  0  0  0  0  0  0  0  0  0  0
    4.1063   -6.7090    0.0000 C   0  0  0  0  0  0  0  0  0  0  0  0
    4.8523   -5.4078    0.0000 C   0  0  0  0  0  0  0  0  0  0  0  0
    6.3523   -5.4033    0.0000 C   0  0  0  0  0  0  0  0  0  0  0  0
    7.1061   -6.7002    0.0000 C   0  0  0  0  0  0  0  0  0  0  0  0
    8.6061   -6.6958    0.0000 C   0  0  0  0  0  0  0  0  0  0  0  0
    0.9742   -6.6327    0.0000 C   0  0  0  0  0  0  0  0  0  0  0  0
   10.8601   -7.9882    0.0000 O   0  0  0  0  0  0  0  0  0  0  0  0
  1  2  1  0  0  0  0
  2  3  1  0  0  0  0
  3  4  1  0  0  0  0
  4  5  1  0  0  0  0
  4  8  1  0  0  0  0
  5  6  1  0  0  0  0
  6  7  1  0  0  0  0
  8  9  1  0  0  0  0
  8 29  2  0  0  0  0
  9 10  1  0  0  0  0
 11 10  2  0  0  0  0
 10 27  1  0  0  0  0
 12 11  1  0  0  0  0
 13 12  1  0  0  0  0
 12 25  2  0  0  0  0
 14 13  1  0  0  0  0
 15 14  1  0  0  0  0
 16 15  1  0  0  0  0
 15 24  1  0  0  0  0
 17 16  1  0  0  0  0
 16 21  1  0  0  0  0
 18 17  1  0  0  0  0
 19 18  1  0  0  0  0
 19 20  1  0  0  0  0
 21 19  1  0  0  0  0
 22 21  1  0  0  0  0
 21 28  1  0  0  0  0
 23 22  1  0  0  0  0
 24 23  1  0  0  0  0
 25 24  1  0  0  0  0
 26 25  1  0  0  0  0
 27 26  2  0  0  0  0
M  END
> <Inchi_key>
FRPJXPJMRWBBIH-UHFFFAOYSA-N

> <Source>
Kotsampasakou

> <ID>
EK0201

> <H_MFHB>


> <CAS>


> <Cholestasis>
0

> <Name>
estramustine

> <Class>
0

$$$$