

  -INDIGO-08031710012D

 30 34  0  0  0  0  0  0  0  0999 V2000
   11.5849    8.3331    0.0000 C   0  0  0  0  0  0  0  0  0  0  0  0
   11.1078    6.9110    0.0000 O   0  0  0  0  0  0  0  0  0  0  0  0
    9.6375    6.6131    0.0000 C   0  0  0  0  0  0  0  0  0  0  0  0
    8.6447    7.7373    0.0000 C   0  0  0  0  0  0  0  0  0  0  0  0
    7.1746    7.4393    0.0000 C   0  0  0  0  0  0  0  0  0  0  0  0
    6.6973    6.0172    0.0000 C   0  0  0  0  0  0  0  0  0  0  0  0
    5.3213    5.4202    0.0000 C   0  0  0  0  0  0  0  0  0  0  0  0
    5.4640    3.9270    0.0000 O   0  0  0  0  0  0  0  0  0  0  0  0
    6.9281    3.6012    0.0000 C   0  0  0  0  0  0  0  0  0  0  0  0
    7.5251    2.2251    0.0000 O   0  0  0  0  0  0  0  0  0  0  0  0
    7.6906    4.8930    0.0000 C   0  0  0  0  0  0  0  0  0  0  0  0
    9.1607    5.1909    0.0000 C   0  0  0  0  0  0  0  0  0  0  0  0
   10.1537    4.0668    0.0000 O   0  0  0  0  0  0  0  0  0  0  0  0
   11.6238    4.3647    0.0000 C   0  0  0  0  0  0  0  0  0  0  0  0
    4.0296    6.1825    0.0000 C   0  0  0  0  0  0  0  0  0  0  0  0
    4.0436    7.6824    0.0000 N   0  0  0  0  0  0  0  0  0  0  0  0
    5.3498    8.4199    0.0000 C   0  0  0  0  0  0  0  0  0  0  0  0
    2.7519    8.4447    0.0000 C   0  0  0  0  0  0  0  0  0  0  0  0
    1.4457    7.7071    0.0000 C   0  0  0  0  0  0  0  0  0  0  0  0
    1.4314    6.2071    0.0000 C   0  0  0  0  0  0  0  0  0  0  0  0
    0.1254    5.4695    0.0000 C   0  0  0  0  0  0  0  0  0  0  0  0
    0.1112    3.9696    0.0000 C   0  0  0  0  0  0  0  0  0  0  0  0
   -1.0130    2.9765    0.0000 O   0  0  0  0  0  0  0  0  0  0  0  0
   -0.4158    1.6005    0.0000 C   0  0  0  0  0  0  0  0  0  0  0  0
    1.0772    1.7431    0.0000 O   0  0  0  0  0  0  0  0  0  0  0  0
    1.4029    3.2073    0.0000 C   0  0  0  0  0  0  0  0  0  0  0  0
    2.7091    3.9449    0.0000 C   0  0  0  0  0  0  0  0  0  0  0  0
    4.0010    3.1826    0.0000 O   0  0  0  0  0  0  0  0  0  0  0  0
    3.9868    1.6827    0.0000 C   0  0  0  0  0  0  0  0  0  0  0  0
    2.7234    5.4448    0.0000 C   0  0  0  0  0  0  0  0  0  0  0  0
  1  2  1  0  0  0  0
  2  3  1  0  0  0  0
  4  3  2  0  0  0  0
  3 12  1  0  0  0  0
  5  4  1  0  0  0  0
  6  5  2  0  0  0  0
  7  6  1  0  0  0  0
  6 11  1  0  0  0  0
  8  7  1  0  0  0  0
  7 15  1  0  0  0  0
  9  8  1  0  0  0  0
  9 10  2  0  0  0  0
 11  9  1  0  0  0  0
 12 11  2  0  0  0  0
 12 13  1  0  0  0  0
 13 14  1  0  0  0  0
 16 15  1  0  0  0  0
 15 30  1  0  0  0  0
 16 17  1  0  0  0  0
 18 16  1  0  0  0  0
 19 18  1  0  0  0  0
 20 19  1  0  0  0  0
 21 20  2  0  0  0  0
 20 30  1  0  0  0  0
 22 21  1  0  0  0  0
 23 22  1  0  0  0  0
 22 26  2  0  0  0  0
 24 23  1  0  0  0  0
 25 24  1  0  0  0  0
 26 25  1  0  0  0  0
 27 26  1  0  0  0  0
 27 28  1  0  0  0  0
 30 27  2  0  0  0  0
 28 29  1  0  0  0  0
M  END
> <Inchi_key>
AKNNEGZIBPJZJG-UHFFFAOYSA-N

> <Source>
Mulliner

> <ID>
HT1528

> <H_MFHB>
0

> <CAS>


> <Cholestasis>


> <Name>
noscapine

> <Class>
0


$$$$