
  -INDIGO-08031710012D

 27 29  0  0  0  0  0  0  0  0999 V2000
   17.5610   10.1389    0.0000 C   0  0  0  0  0  0  0  0  0  0  0  0
   16.8109    8.8399    0.0000 C   0  0  0  0  0  0  0  0  0  0  0  0
   15.3110    8.8399    0.0000 C   0  0  0  0  0  0  0  0  0  0  0  0
   14.5610    7.5408    0.0000 C   0  0  0  0  0  0  0  0  0  0  0  0
   13.0611    7.5408    0.0000 C   0  0  0  0  0  0  0  0  0  0  0  0
   12.3110    6.2416    0.0000 C   0  0  0  0  0  0  0  0  0  0  0  0
   10.8111    6.2416    0.0000 C   0  0  0  0  0  0  0  0  0  0  0  0
   10.8111    4.7417    0.0000 C   0  0  0  0  0  0  0  0  0  0  0  0
   10.8111    7.7417    0.0000 C   0  0  0  0  0  0  0  0  0  0  0  0
    9.3110    6.2416    0.0000 C   0  0  0  0  0  0  0  0  0  0  0  0
    8.5609    7.5408    0.0000 C   0  0  0  0  0  0  0  0  0  0  0  0
    7.0610    7.5408    0.0000 C   0  0  0  0  0  0  0  0  0  0  0  0
    6.3109    8.8399    0.0000 O   0  0  0  0  0  0  0  0  0  0  0  0
    6.3109    6.2416    0.0000 C   0  0  0  0  0  0  0  0  0  0  0  0
    4.8110    6.2416    0.0000 C   0  0  0  0  0  0  0  0  0  0  0  0
    4.0610    7.5408    0.0000 C   0  0  0  0  0  0  0  0  0  0  0  0
    2.5611    7.5408    0.0000 C   0  0  0  0  0  0  0  0  0  0  0  0
    1.8110    8.8399    0.0000 O   0  0  0  0  0  0  0  0  0  0  0  0
    1.8110    6.2416    0.0000 C   0  0  0  0  0  0  0  0  0  0  0  0
    2.5611    4.9427    0.0000 C   0  0  0  0  0  0  0  0  0  0  0  0
    4.0610    4.9427    0.0000 C   0  0  0  0  0  0  0  0  0  0  0  0
    4.8110    3.6437    0.0000 C   0  0  0  0  0  0  0  0  0  0  0  0
    4.8110    2.1437    0.0000 C   0  0  0  0  0  0  0  0  0  0  0  0
    3.5121    2.8937    0.0000 C   0  0  0  0  0  0  0  0  0  0  0  0
    6.3109    3.6437    0.0000 O   0  0  0  0  0  0  0  0  0  0  0  0
    7.0610    4.9427    0.0000 C   0  0  0  0  0  0  0  0  0  0  0  0
    8.5609    4.9427    0.0000 C   0  0  0  0  0  0  0  0  0  0  0  0
  1  2  1  0  0  0  0
  2  3  1  0  0  0  0
  3  4  1  0  0  0  0
  4  5  1  0  0  0  0
  5  6  1  0  0  0  0
  6  7  1  0  0  0  0
  7  8  1  0  0  0  0
  7  9  1  0  0  0  0
  7 10  1  0  0  0  0
 11 10  2  0  0  0  0
 10 27  1  0  0  0  0
 12 11  1  0  0  0  0
 12 13  1  0  0  0  0
 14 12  2  0  0  0  0
 15 14  1  0  0  0  0
 14 26  1  0  0  0  0
 16 15  1  0  0  0  0
 15 21  1  0  0  0  0
 17 16  1  0  0  0  0
 17 18  2  0  0  0  0
 19 17  1  0  0  0  0
 20 19  1  0  0  0  0
 21 20  1  0  0  0  0
 22 21  1  0  0  0  0
 22 23  1  0  0  0  0
 22 24  1  0  0  0  0
 25 22  1  0  0  0  0
 26 25  1  0  0  0  0
 27 26  2  0  0  0  0
M  END
> <Inchi_key>
GECBBEABIDMGGL-UHFFFAOYSA-N

> <Source>
Mulliner , Kotsampasakou

> <ID>
EK0365;HT1446

> <H_MFHB>
0

> <CAS>


> <Cholestasis>
0

> <Name>
nabilone

> <Class>
0

$$$$