
  -INDIGO-08031710012D

 17 19  0  0  0  0  0  0  0  0999 V2000
    0.8795    5.2970    0.0000 C   0  0  0  0  0  0  0  0  0  0  0  0
    0.8795    3.7970    0.0000 C   0  0  0  0  0  0  0  0  0  0  0  0
   -0.4195    3.0470    0.0000 C   0  0  0  0  0  0  0  0  0  0  0  0
   -0.4195    1.5470    0.0000 C   0  0  0  0  0  0  0  0  0  0  0  0
   -1.7186    0.7970    0.0000 O   0  0  0  0  0  0  0  0  0  0  0  0
    0.8795    0.7970    0.0000 O   0  0  0  0  0  0  0  0  0  0  0  0
    2.1784    1.5470    0.0000 C   0  0  0  0  0  0  0  0  0  0  0  0
    3.4776    0.7970    0.0000 C   0  0  0  0  0  0  0  0  0  0  0  0
    3.4776   -0.7030    0.0000 C   0  0  0  0  0  0  0  0  0  0  0  0
    4.7765    1.5470    0.0000 C   0  0  0  0  0  0  0  0  0  0  0  0
    6.2032    1.0834    0.0000 O   0  0  0  0  0  0  0  0  0  0  0  0
    7.0849    2.2970    0.0000 C   0  0  0  0  0  0  0  0  0  0  0  0
    8.5849    2.2970    0.0000 C   0  0  0  0  0  0  0  0  0  0  0  0
    6.2032    3.5105    0.0000 C   0  0  0  0  0  0  0  0  0  0  0  0
    4.7765    3.0470    0.0000 C   0  0  0  0  0  0  0  0  0  0  0  0
    3.4776    3.7970    0.0000 C   0  0  0  0  0  0  0  0  0  0  0  0
    2.1784    3.0470    0.0000 C   0  0  0  0  0  0  0  0  0  0  0  0
  1  2  1  0  0  0  0
  3  2  2  0  0  0  0
  2 17  1  0  0  0  0
  4  3  1  0  0  0  0
  4  5  2  0  0  0  0
  6  4  1  0  0  0  0
  7  6  1  0  0  0  0
  8  7  1  0  0  0  0
  7 17  2  0  0  0  0
  8  9  1  0  0  0  0
 10  8  2  0  0  0  0
 11 10  1  0  0  0  0
 10 15  1  0  0  0  0
 12 11  1  0  0  0  0
 12 13  1  0  0  0  0
 14 12  2  0  0  0  0
 15 14  1  0  0  0  0
 16 15  2  0  0  0  0
 17 16  1  0  0  0  0
M  END
> <Inchi_key>
FMHHVULEAZTJMA-UHFFFAOYSA-N

> <Source>
Mulliner

> <ID>
HT2131

> <H_MFHB>
0

> <CAS>


> <Cholestasis>


> <Name>
trioxsalen

> <Class>
0

$$$$