
  -INDIGO-08031710012D

 29 31  0  0  0  0  0  0  0  0999 V2000
   13.3448    9.3172    0.0000 C   0  0  0  0  0  0  0  0  0  0  0  0
   12.5948   10.6164    0.0000 C   0  0  0  0  0  0  0  0  0  0  0  0
   11.0947   10.6164    0.0000 N   0  0  0  0  0  0  0  0  0  0  0  0
   10.3449   11.9152    0.0000 C   0  0  0  0  0  0  0  0  0  0  0  0
   11.0947   13.2144    0.0000 C   0  0  0  0  0  0  0  0  0  0  0  0
   10.3449    9.3172    0.0000 C   0  0  0  0  0  0  0  0  0  0  0  0
    8.8448    9.3172    0.0000 C   0  0  0  0  0  0  0  0  0  0  0  0
    8.0948    8.0182    0.0000 O   0  0  0  0  0  0  0  0  0  0  0  0
    6.5947    8.0182    0.0000 C   0  0  0  0  0  0  0  0  0  0  0  0
    5.8447    9.3172    0.0000 C   0  0  0  0  0  0  0  0  0  0  0  0
    4.3449    9.3172    0.0000 C   0  0  0  0  0  0  0  0  0  0  0  0
    3.5949    8.0182    0.0000 C   0  0  0  0  0  0  0  0  0  0  0  0
    4.3449    6.7191    0.0000 C   0  0  0  0  0  0  0  0  0  0  0  0
    5.8447    6.7191    0.0000 C   0  0  0  0  0  0  0  0  0  0  0  0
    2.0948    8.0182    0.0000 C   0  0  0  0  0  0  0  0  0  0  0  0
    1.3448    9.3172    0.0000 C   0  0  0  0  0  0  0  0  0  0  0  0
    2.0948   10.6164    0.0000 Cl  0  0  0  0  0  0  0  0  0  0  0  0
   -0.1553    9.3172    0.0000 C   0  0  0  0  0  0  0  0  0  0  0  0
   -0.9051    8.0182    0.0000 C   0  0  0  0  0  0  0  0  0  0  0  0
   -2.4052    8.0182    0.0000 C   0  0  0  0  0  0  0  0  0  0  0  0
   -3.1552    9.3172    0.0000 C   0  0  0  0  0  0  0  0  0  0  0  0
   -2.4052   10.6164    0.0000 C   0  0  0  0  0  0  0  0  0  0  0  0
   -0.9051   10.6164    0.0000 C   0  0  0  0  0  0  0  0  0  0  0  0
    1.3448    6.7191    0.0000 C   0  0  0  0  0  0  0  0  0  0  0  0
   -0.1553    6.7191    0.0000 C   0  0  0  0  0  0  0  0  0  0  0  0
   -0.9051    5.4201    0.0000 C   0  0  0  0  0  0  0  0  0  0  0  0
   -0.1553    4.1211    0.0000 C   0  0  0  0  0  0  0  0  0  0  0  0
    1.3448    4.1211    0.0000 C   0  0  0  0  0  0  0  0  0  0  0  0
    2.0948    5.4201    0.0000 C   0  0  0  0  0  0  0  0  0  0  0  0
  1  2  1  0  0  0  0
  2  3  1  0  0  0  0
  3  4  1  0  0  0  0
  3  6  1  0  0  0  0
  4  5  1  0  0  0  0
  6  7  1  0  0  0  0
  7  8  1  0  0  0  0
  8  9  1  0  0  0  0
 10  9  2  0  0  0  0
  9 14  1  0  0  0  0
 11 10  1  0  0  0  0
 12 11  2  0  0  0  0
 13 12  1  0  0  0  0
 12 15  1  0  0  0  0
 14 13  2  0  0  0  0
 15 16  2  0  0  0  0
 15 24  1  0  0  0  0
 16 17  1  0  0  0  0
 16 18  1  0  0  0  0
 19 18  2  0  0  0  0
 18 23  1  0  0  0  0
 20 19  1  0  0  0  0
 21 20  2  0  0  0  0
 22 21  1  0  0  0  0
 23 22  2  0  0  0  0
 25 24  2  0  0  0  0
 24 29  1  0  0  0  0
 26 25  1  0  0  0  0
 27 26  2  0  0  0  0
 28 27  1  0  0  0  0
 29 28  2  0  0  0  0
M  END
> <Inchi_key>
GKIRPKYJQBWNGO-QPLCGJKRSA-N

> <Source>
Mulliner

> <ID>
HT0527

> <H_MFHB>
0

> <CAS>


> <Cholestasis>


> <Name>
clomiphene citrate;clomiphene

> <Class>
0

$$$$