

  -INDIGO-08031710012D

 15 15  0  0  0  0  0  0  0  0999 V2000
    0.9974   -3.7222    0.0000 C   0  0  0  0  0  0  0  0  0  0  0  0
    2.2964   -2.9722    0.0000 C   0  0  0  0  0  0  0  0  0  0  0  0
    2.2964   -1.4722    0.0000 C   0  0  0  0  0  0  0  0  0  0  0  0
    3.5954   -0.7222    0.0000 C   0  0  0  0  0  0  0  0  0  0  0  0
    2.2964    0.0278    0.0000 C   0  0  0  0  0  0  0  0  0  0  0  0
    0.9974   -0.7222    0.0000 C   0  0  0  0  0  0  0  0  0  0  0  0
   -0.3017    0.0278    0.0000 C   0  0  0  0  0  0  0  0  0  0  0  0
    4.3454    0.5768    0.0000 C   0  0  0  0  0  0  0  0  0  0  0  0
    3.5954    1.8758    0.0000 O   0  0  0  0  0  0  0  0  0  0  0  0
    5.8454    0.5768    0.0000 N   0  0  0  0  0  0  0  0  0  0  0  0
    6.5954   -0.7222    0.0000 C   0  0  0  0  0  0  0  0  0  0  0  0
    8.0954   -0.7222    0.0000 O   0  0  0  0  0  0  0  0  0  0  0  0
    5.8454   -2.0213    0.0000 N   0  0  0  0  0  0  0  0  0  0  0  0
    4.3454   -2.0213    0.0000 C   0  0  0  0  0  0  0  0  0  0  0  0
    3.5954   -3.3203    0.0000 O   0  0  0  0  0  0  0  0  0  0  0  0
  1  2  2  0  0  0  0
  2  3  1  0  0  0  0
  3  4  1  0  0  0  0
  4  5  1  0  0  0  0
  8  4  1  0  0  0  0
  4 14  1  0  0  0  0
  5  6  1  0  0  0  0
  6  7  2  0  0  0  0
  8  9  2  0  0  0  0
 10  8  1  0  0  0  0
 11 10  1  0  0  0  0
 11 12  2  0  0  0  0
 13 11  1  0  0  0  0
 14 13  1  0  0  0  0
 14 15  2  0  0  0  0
M  END
> <Inchi_key>
FDQGNLOWMMVRQL-UHFFFAOYSA-N

> <Source>
Mulliner

> <ID>
HT0102

> <H_MFHB>
0

> <CAS>


> <Cholestasis>


> <Name>
allobarbital

> <Class>
0


$$$$