
  -INDIGO-08031710012D

 33 35  0  0  0  0  0  0  0  0999 V2000
   16.1384    4.3243    0.0000 C   0  0  0  0  0  0  0  0  0  0  0  0
   14.8393    3.5743    0.0000 C   0  0  0  0  0  0  0  0  0  0  0  0
   14.8393    2.0743    0.0000 C   0  0  0  0  0  0  0  0  0  0  0  0
   13.5402    1.3243    0.0000 C   0  0  0  0  0  0  0  0  0  0  0  0
   13.5402   -0.1756    0.0000 N   0  0  0  0  0  0  0  0  0  0  0  0
   14.8393   -0.9257    0.0000 C   0  0  0  0  0  0  0  0  0  0  0  0
   14.8393   -2.4257    0.0000 C   0  0  0  0  0  0  0  0  0  0  0  0
   16.1384   -3.1756    0.0000 C   0  0  0  0  0  0  0  0  0  0  0  0
   16.1384   -4.6757    0.0000 C   0  0  0  0  0  0  0  0  0  0  0  0
   12.2413   -0.9257    0.0000 C   0  0  0  0  0  0  0  0  0  0  0  0
   10.9422   -0.1756    0.0000 C   0  0  0  0  0  0  0  0  0  0  0  0
    9.6431   -0.9257    0.0000 C   0  0  0  0  0  0  0  0  0  0  0  0
    9.6431   -2.4257    0.0000 O   0  0  0  0  0  0  0  0  0  0  0  0
    8.3443   -0.1756    0.0000 C   0  0  0  0  0  0  0  0  0  0  0  0
    8.3443    1.3243    0.0000 C   0  0  0  0  0  0  0  0  0  0  0  0
    7.0452    2.0743    0.0000 C   0  0  0  0  0  0  0  0  0  0  0  0
    7.0452    3.5743    0.0000 C   0  0  0  0  0  0  0  0  0  0  0  0
    8.3443    4.3243    0.0000 Cl  0  0  0  0  0  0  0  0  0  0  0  0
    5.7461    4.3243    0.0000 C   0  0  0  0  0  0  0  0  0  0  0  0
    4.4472    3.5743    0.0000 C   0  0  0  0  0  0  0  0  0  0  0  0
    3.1481    4.3243    0.0000 Cl  0  0  0  0  0  0  0  0  0  0  0  0
    4.4472    2.0743    0.0000 C   0  0  0  0  0  0  0  0  0  0  0  0
    5.7461    1.3243    0.0000 C   0  0  0  0  0  0  0  0  0  0  0  0
    5.7461   -0.1756    0.0000 C   0  0  0  0  0  0  0  0  0  0  0  0
    4.4472   -0.9257    0.0000 C   0  0  0  0  0  0  0  0  0  0  0  0
    4.4472   -2.4257    0.0000 C   0  0  0  0  0  0  0  0  0  0  0  0
    5.7461   -3.1756    0.0000 C   0  0  0  0  0  0  0  0  0  0  0  0
    7.0452   -2.4257    0.0000 C   0  0  0  0  0  0  0  0  0  0  0  0
    7.0452   -0.9257    0.0000 C   0  0  0  0  0  0  0  0  0  0  0  0
    3.1481   -3.1756    0.0000 C   0  0  0  0  0  0  0  0  0  0  0  0
    2.3980   -1.8768    0.0000 F   0  0  0  0  0  0  0  0  0  0  0  0
    1.8490   -3.9257    0.0000 F   0  0  0  0  0  0  0  0  0  0  0  0
    3.8979   -4.4748    0.0000 F   0  0  0  0  0  0  0  0  0  0  0  0
  1  2  1  0  0  0  0
  2  3  1  0  0  0  0
  3  4  1  0  0  0  0
  4  5  1  0  0  0  0
  5  6  1  0  0  0  0
  5 10  1  0  0  0  0
  6  7  1  0  0  0  0
  7  8  1  0  0  0  0
  8  9  1  0  0  0  0
 10 11  1  0  0  0  0
 11 12  1  0  0  0  0
 12 13  1  0  0  0  0
 12 14  1  0  0  0  0
 15 14  2  0  0  0  0
 14 29  1  0  0  0  0
 16 15  1  0  0  0  0
 17 16  2  0  0  0  0
 16 23  1  0  0  0  0
 17 18  1  0  0  0  0
 19 17  1  0  0  0  0
 20 19  2  0  0  0  0
 20 21  1  0  0  0  0
 22 20  1  0  0  0  0
 23 22  2  0  0  0  0
 24 23  1  0  0  0  0
 25 24  1  0  0  0  0
 24 29  2  0  0  0  0
 26 25  2  0  0  0  0
 27 26  1  0  0  0  0
 26 30  1  0  0  0  0
 28 27  2  0  0  0  0
 29 28  1  0  0  0  0
 30 31  1  0  0  0  0
 30 32  1  0  0  0  0
 30 33  1  0  0  0  0
M  END
> <Inchi_key>
FOHHNHSLJDZUGQ-UHFFFAOYSA-N

> <Source>
Mulliner

> <ID>
HT1016

> <H_MFHB>
0

> <CAS>


> <Cholestasis>


> <Name>
halofantrine hydrochloride;halofantrine

> <Class>
0

$$$$