

  -INDIGO-08031710012D

 25 26  0  0  0  0  0  0  0  0999 V2000
   14.7488    0.0000    0.0000 C   0  0  0  0  0  0  0  0  0  0  0  0
   13.2487    0.0000    0.0000 C   0  0  0  0  0  0  0  0  0  0  0  0
   12.4987    1.2990    0.0000 N   0  0  0  0  0  0  0  0  0  0  0  0
   11.7489    2.5981    0.0000 C   0  0  0  0  0  0  0  0  0  0  0  0
   13.7978    2.0490    0.0000 C   0  0  0  0  0  0  0  0  0  0  0  0
   13.7978    3.5490    0.0000 C   0  0  0  0  0  0  0  0  0  0  0  0
   11.1997    0.5490    0.0000 C   0  0  0  0  0  0  0  0  0  0  0  0
    9.9006    1.2990    0.0000 C   0  0  0  0  0  0  0  0  0  0  0  0
    8.6018    0.5490    0.0000 O   0  0  0  0  0  0  0  0  0  0  0  0
    7.3025    1.2990    0.0000 C   0  0  0  0  0  0  0  0  0  0  0  0
    7.3025    2.7990    0.0000 O   0  0  0  0  0  0  0  0  0  0  0  0
    6.0037    0.5490    0.0000 C   0  0  0  0  0  0  0  0  0  0  0  0
    6.7537   -0.7500    0.0000 O   0  0  0  0  0  0  0  0  0  0  0  0
    5.2536    1.8481    0.0000 C   0  0  0  0  0  0  0  0  0  0  0  0
    6.0037    3.1471    0.0000 C   0  0  0  0  0  0  0  0  0  0  0  0
    5.2536    4.4462    0.0000 C   0  0  0  0  0  0  0  0  0  0  0  0
    3.7536    4.4462    0.0000 C   0  0  0  0  0  0  0  0  0  0  0  0
    3.0035    3.1471    0.0000 C   0  0  0  0  0  0  0  0  0  0  0  0
    3.7536    1.8481    0.0000 C   0  0  0  0  0  0  0  0  0  0  0  0
    4.7044   -0.2010    0.0000 C   0  0  0  0  0  0  0  0  0  0  0  0
    3.4056    0.5490    0.0000 C   0  0  0  0  0  0  0  0  0  0  0  0
    2.1065   -0.2010    0.0000 C   0  0  0  0  0  0  0  0  0  0  0  0
    2.1065   -1.7010    0.0000 C   0  0  0  0  0  0  0  0  0  0  0  0
    3.4056   -2.4510    0.0000 C   0  0  0  0  0  0  0  0  0  0  0  0
    4.7044   -1.7010    0.0000 C   0  0  0  0  0  0  0  0  0  0  0  0
  1  2  1  0  0  0  0
  2  3  1  0  0  0  0
  3  4  1  0  0  0  0
  3  5  1  0  0  0  0
  3  7  1  0  0  0  0
  5  6  1  0  0  0  0
  7  8  1  0  0  0  0
  8  9  1  0  0  0  0
  9 10  1  0  0  0  0
 10 11  2  0  0  0  0
 10 12  1  0  0  0  0
 12 13  1  0  0  0  0
 12 14  1  0  0  0  0
 12 20  1  0  0  0  0
 15 14  1  0  0  0  0
 14 19  1  0  0  0  0
 16 15  1  0  0  0  0
 17 16  1  0  0  0  0
 18 17  1  0  0  0  0
 19 18  1  0  0  0  0
 21 20  2  0  0  0  0
 20 25  1  0  0  0  0
 22 21  1  0  0  0  0
 23 22  2  0  0  0  0
 24 23  1  0  0  0  0
 25 24  2  0  0  0  0
M  CHG  1   3   1
M  END
> <Inchi_key>
GFRUPHOKLBPHTQ-UHFFFAOYSA-N

> <Source>
Mulliner

> <ID>
HT1574

> <H_MFHB>
0

> <CAS>


> <Cholestasis>


> <Name>
oxyphenonium

> <Class>
0


$$$$