
  -INDIGO-08031710012D

 24 26  0  0  0  0  0  0  0  0999 V2000
    3.1562    3.6265    0.0000 C   0  0  0  0  0  0  0  0  0  0  0  0
    3.9062    2.3274    0.0000 C   0  0  0  0  0  0  0  0  0  0  0  0
    3.1562    1.0284    0.0000 N   0  0  0  0  0  0  0  0  0  0  0  0
    1.6561    1.0284    0.0000 C   0  0  0  0  0  0  0  0  0  0  0  0
    0.9063   -0.2707    0.0000 C   0  0  0  0  0  0  0  0  0  0  0  0
   -0.5938   -0.2707    0.0000 C   0  0  0  0  0  0  0  0  0  0  0  0
   -1.3438    1.0284    0.0000 O   0  0  0  0  0  0  0  0  0  0  0  0
   -1.3438   -1.5698    0.0000 O   0  0  0  0  0  0  0  0  0  0  0  0
    1.6561   -1.5698    0.0000 C   0  0  0  0  0  0  0  0  0  0  0  0
    0.9063   -2.8687    0.0000 O   0  0  0  0  0  0  0  0  0  0  0  0
    3.1562   -1.5698    0.0000 C   0  0  0  0  0  0  0  0  0  0  0  0
    3.9062   -2.8687    0.0000 C   0  0  0  0  0  0  0  0  0  0  0  0
    5.4063   -2.8687    0.0000 C   0  0  0  0  0  0  0  0  0  0  0  0
    6.1561   -4.1677    0.0000 F   0  0  0  0  0  0  0  0  0  0  0  0
    6.1561   -1.5698    0.0000 C   0  0  0  0  0  0  0  0  0  0  0  0
    5.4063   -0.2707    0.0000 C   0  0  0  0  0  0  0  0  0  0  0  0
    3.9062   -0.2707    0.0000 C   0  0  0  0  0  0  0  0  0  0  0  0
    7.6562   -1.5698    0.0000 N   0  0  0  0  0  0  0  0  0  0  0  0
    8.4062   -2.8687    0.0000 C   0  0  0  0  0  0  0  0  0  0  0  0
    9.9063   -2.8687    0.0000 C   0  0  0  0  0  0  0  0  0  0  0  0
   10.6561   -1.5698    0.0000 N   0  0  0  0  0  0  0  0  0  0  0  0
   12.1562   -1.5698    0.0000 C   0  0  0  0  0  0  0  0  0  0  0  0
    9.9063   -0.2707    0.0000 C   0  0  0  0  0  0  0  0  0  0  0  0
    8.4062   -0.2707    0.0000 C   0  0  0  0  0  0  0  0  0  0  0  0
  1  2  1  0  0  0  0
  2  3  1  0  0  0  0
  4  3  1  0  0  0  0
  3 17  1  0  0  0  0
  5  4  2  0  0  0  0
  5  6  1  0  0  0  0
  9  5  1  0  0  0  0
  6  7  2  0  0  0  0
  6  8  1  0  0  0  0
  9 10  2  0  0  0  0
 11  9  1  0  0  0  0
 12 11  1  0  0  0  0
 11 17  2  0  0  0  0
 13 12  2  0  0  0  0
 13 14  1  0  0  0  0
 15 13  1  0  0  0  0
 16 15  2  0  0  0  0
 15 18  1  0  0  0  0
 17 16  1  0  0  0  0
 19 18  1  0  0  0  0
 18 24  1  0  0  0  0
 20 19  1  0  0  0  0
 21 20  1  0  0  0  0
 21 22  1  0  0  0  0
 23 21  1  0  0  0  0
 24 23  1  0  0  0  0
M  END
> <Inchi_key>
FHFYDNQZQSQIAI-UHFFFAOYSA-N

> <Source>
Mulliner

> <ID>
HT1605

> <H_MFHB>
0

> <CAS>
70458-92-3

> <Cholestasis>


> <Name>
pefloxacin;pefloxacine

> <Class>
0

$$$$