
  -INDIGO-08031710012D

 15 16  0  0  0  0  0  0  0  0999 V2000
    0.3378    0.5678    0.0000 C   0  0  0  0  0  0  0  0  0  0  0  0
    1.0535   -0.7504    0.0000 C   0  0  0  0  0  0  0  0  0  0  0  0
   -0.4459   -0.7897    0.0000 C   0  0  0  0  0  0  0  0  0  0  0  0
    2.4239   -0.1403    0.0000 C   0  0  0  0  0  0  0  0  0  0  0  0
    3.4276   -1.2550    0.0000 N   0  0  0  0  0  0  0  0  0  0  0  0
    2.6776   -2.5541    0.0000 C   0  0  0  0  0  0  0  0  0  0  0  0
    3.9766   -3.3041    0.0000 C   0  0  0  0  0  0  0  0  0  0  0  0
    4.7266   -2.0050    0.0000 C   0  0  0  0  0  0  0  0  0  0  0  0
    6.1755   -1.6168    0.0000 O   0  0  0  0  0  0  0  0  0  0  0  0
    1.2103   -2.2422    0.0000 S   0  0  0  0  0  0  0  0  0  0  0  0
   -0.2712   -2.4769    0.0000 O   0  0  0  0  0  0  0  0  0  0  0  0
    0.7220   -3.6605    0.0000 O   0  0  0  0  0  0  0  0  0  0  0  0
    2.7357    1.3269    0.0000 C   0  0  0  0  0  0  0  0  0  0  0  0
    1.6210    2.3306    0.0000 O   0  0  0  0  0  0  0  0  0  0  0  0
    4.1623    1.7904    0.0000 O   0  0  0  0  0  0  0  0  0  0  0  0
  1  2  1  0  0  0  0
  2  3  1  0  0  0  0
  4  2  1  0  0  0  0
  2 10  1  0  0  0  0
  5  4  1  0  0  0  0
  4 13  1  0  0  0  0
  5  6  1  0  0  0  0
  8  5  1  0  0  0  0
  6  7  1  0  0  0  0
 10  6  1  0  0  0  0
  7  8  1  0  0  0  0
  8  9  2  0  0  0  0
 10 11  2  0  0  0  0
 10 12  2  0  0  0  0
 13 14  2  0  0  0  0
 13 15  1  0  0  0  0
M  END
> <Inchi_key>
FKENQMMABCRJMK-UHFFFAOYSA-N

> <Source>
Mulliner

> <ID>
HT1930

> <H_MFHB>
0

> <CAS>
69388-84-7

> <Cholestasis>


> <Name>
sulbactam

> <Class>
0

$$$$