

  -INDIGO-08031710012D

 30 33  0  0  0  0  0  0  0  0999 V2000
   16.8000   -9.6995    0.0000 C   0  0  0  0  0  0  0  0  0  0  0  0
   16.0500   -8.4003    0.0000 C   0  0  0  0  0  0  0  0  0  0  0  0
   14.5499   -8.4003    0.0000 O   0  0  0  0  0  0  0  0  0  0  0  0
   13.8001   -7.1015    0.0000 C   0  0  0  0  0  0  0  0  0  0  0  0
   14.5499   -5.8024    0.0000 O   0  0  0  0  0  0  0  0  0  0  0  0
   12.3000   -7.1015    0.0000 N   0  0  0  0  0  0  0  0  0  0  0  0
   11.5500   -5.8024    0.0000 C   0  0  0  0  0  0  0  0  0  0  0  0
   12.3000   -4.5033    0.0000 C   0  0  0  0  0  0  0  0  0  0  0  0
   11.5500   -3.2042    0.0000 C   0  0  0  0  0  0  0  0  0  0  0  0
   10.0499   -3.2042    0.0000 C   0  0  0  0  0  0  0  0  0  0  0  0
    9.2999   -1.9054    0.0000 S   0  0  0  0  0  0  0  0  0  0  0  0
    7.8001   -1.9054    0.0000 C   0  0  0  0  0  0  0  0  0  0  0  0
    7.0501   -0.6062    0.0000 C   0  0  0  0  0  0  0  0  0  0  0  0
    5.5500   -0.6062    0.0000 C   0  0  0  0  0  0  0  0  0  0  0  0
    4.8000   -1.9054    0.0000 C   0  0  0  0  0  0  0  0  0  0  0  0
    5.5500   -3.2042    0.0000 C   0  0  0  0  0  0  0  0  0  0  0  0
    7.0501   -3.2042    0.0000 C   0  0  0  0  0  0  0  0  0  0  0  0
    7.8001   -4.5033    0.0000 N   0  0  0  0  0  0  0  0  0  0  0  0
    7.0501   -5.8024    0.0000 C   0  0  0  0  0  0  0  0  0  0  0  0
    7.8001   -7.1015    0.0000 O   0  0  0  0  0  0  0  0  0  0  0  0
    5.5500   -5.8024    0.0000 C   0  0  0  0  0  0  0  0  0  0  0  0
    4.8000   -7.1015    0.0000 C   0  0  0  0  0  0  0  0  0  0  0  0
    3.2999   -7.1015    0.0000 N   0  0  0  0  0  0  0  0  0  0  0  0
    2.5501   -5.8024    0.0000 C   0  0  0  0  0  0  0  0  0  0  0  0
    1.0500   -5.8024    0.0000 C   0  0  0  0  0  0  0  0  0  0  0  0
    0.3000   -7.1015    0.0000 O   0  0  0  0  0  0  0  0  0  0  0  0
    1.0500   -8.4003    0.0000 C   0  0  0  0  0  0  0  0  0  0  0  0
    2.5501   -8.4003    0.0000 C   0  0  0  0  0  0  0  0  0  0  0  0
    9.2999   -4.5033    0.0000 C   0  0  0  0  0  0  0  0  0  0  0  0
   10.0499   -5.8024    0.0000 C   0  0  0  0  0  0  0  0  0  0  0  0
  1  2  1  0  0  0  0
  2  3  1  0  0  0  0
  3  4  1  0  0  0  0
  4  5  2  0  0  0  0
  4  6  1  0  0  0  0
  6  7  1  0  0  0  0
  8  7  2  0  0  0  0
  7 30  1  0  0  0  0
  9  8  1  0  0  0  0
 10  9  2  0  0  0  0
 11 10  1  0  0  0  0
 10 29  1  0  0  0  0
 12 11  1  0  0  0  0
 13 12  2  0  0  0  0
 12 17  1  0  0  0  0
 14 13  1  0  0  0  0
 15 14  2  0  0  0  0
 16 15  1  0  0  0  0
 17 16  2  0  0  0  0
 18 17  1  0  0  0  0
 18 19  1  0  0  0  0
 29 18  1  0  0  0  0
 19 20  2  0  0  0  0
 19 21  1  0  0  0  0
 21 22  1  0  0  0  0
 22 23  1  0  0  0  0
 24 23  1  0  0  0  0
 23 28  1  0  0  0  0
 25 24  1  0  0  0  0
 26 25  1  0  0  0  0
 27 26  1  0  0  0  0
 28 27  1  0  0  0  0
 30 29  2  0  0  0  0
M  END
> <Inchi_key>
FUBVWMNBEHXPSU-UHFFFAOYSA-N

> <Source>
Mulliner , Kotsampasakou

> <ID>
EK0362;HT1434

> <H_MFHB>
0

> <CAS>


> <Cholestasis>
0

> <Name>
moricizine hydrochloride;moricizine

> <Class>
0


$$$$