
  -INDIGO-08031710012D

 13 13  0  0  0  0  0  0  0  0999 V2000
   -0.5068    1.8914    0.0000 C   0  0  0  0  0  0  0  0  0  0  0  0
    0.7922    2.6414    0.0000 C   0  0  0  0  0  0  0  0  0  0  0  0
    2.0913    1.8914    0.0000 C   0  0  0  0  0  0  0  0  0  0  0  0
    0.7922    1.1414    0.0000 C   0  0  0  0  0  0  0  0  0  0  0  0
    0.7922   -0.3586    0.0000 C   0  0  0  0  0  0  0  0  0  0  0  0
    2.8413    3.1905    0.0000 C   0  0  0  0  0  0  0  0  0  0  0  0
    2.0913    4.4895    0.0000 O   0  0  0  0  0  0  0  0  0  0  0  0
    4.3413    3.1905    0.0000 N   0  0  0  0  0  0  0  0  0  0  0  0
    5.0913    1.8914    0.0000 C   0  0  0  0  0  0  0  0  0  0  0  0
    6.5913    1.8914    0.0000 O   0  0  0  0  0  0  0  0  0  0  0  0
    4.3413    0.5924    0.0000 N   0  0  0  0  0  0  0  0  0  0  0  0
    2.8413    0.5924    0.0000 C   0  0  0  0  0  0  0  0  0  0  0  0
    2.0913   -0.7067    0.0000 O   0  0  0  0  0  0  0  0  0  0  0  0
  1  2  1  0  0  0  0
  2  3  1  0  0  0  0
  3  4  1  0  0  0  0
  6  3  1  0  0  0  0
  3 12  1  0  0  0  0
  4  5  1  0  0  0  0
  6  7  2  0  0  0  0
  8  6  1  0  0  0  0
  9  8  1  0  0  0  0
  9 10  2  0  0  0  0
 11  9  1  0  0  0  0
 12 11  1  0  0  0  0
 12 13  2  0  0  0  0
M  END
> <Inchi_key>
FTOAOBMCPZCFFF-UHFFFAOYSA-N

> <Source>
Mulliner

> <ID>
HT0226

> <H_MFHB>
0

> <CAS>
2/5/144

> <Cholestasis>


> <Name>
barbital

> <Class>
0

$$$$