
  -INDIGO-08031710012D

 23 24  0  0  0  0  0  0  0  0999 V2000
    7.2102   -7.2102    0.0000 C   0  0  0  0  0  0  0  0  0  0  0  0
    7.2102   -5.7102    0.0000 C   0  0  0  0  0  0  0  0  0  0  0  0
    8.5093   -4.9602    0.0000 O   0  0  0  0  0  0  0  0  0  0  0  0
    5.9111   -4.9602    0.0000 N   0  0  0  0  0  0  0  0  0  0  0  0
    4.6122   -5.7102    0.0000 C   0  0  0  0  0  0  0  0  0  0  0  0
    4.6122   -7.2102    0.0000 C   0  0  0  0  0  0  0  0  0  0  0  0
    3.3131   -7.9602    0.0000 C   0  0  0  0  0  0  0  0  0  0  0  0
    2.0140   -7.2102    0.0000 C   0  0  0  0  0  0  0  0  0  0  0  0
    0.7152   -7.9602    0.0000 O   0  0  0  0  0  0  0  0  0  0  0  0
   -0.5839   -7.2102    0.0000 C   0  0  0  0  0  0  0  0  0  0  0  0
   -0.5839   -5.7102    0.0000 O   0  0  0  0  0  0  0  0  0  0  0  0
   -1.8830   -7.9602    0.0000 C   0  0  0  0  0  0  0  0  0  0  0  0
   -1.8830   -9.4602    0.0000 C   0  0  0  0  0  0  0  0  0  0  0  0
   -3.1821  -10.2102    0.0000 C   0  0  0  0  0  0  0  0  0  0  0  0
   -4.4810   -9.4602    0.0000 C   0  0  0  0  0  0  0  0  0  0  0  0
   -4.4810   -7.9602    0.0000 C   0  0  0  0  0  0  0  0  0  0  0  0
   -3.1821   -7.2102    0.0000 C   0  0  0  0  0  0  0  0  0  0  0  0
   -3.1821   -5.7102    0.0000 O   0  0  0  0  0  0  0  0  0  0  0  0
   -4.4810   -4.9602    0.0000 C   0  0  0  0  0  0  0  0  0  0  0  0
   -4.4810   -3.4602    0.0000 O   0  0  0  0  0  0  0  0  0  0  0  0
   -5.7801   -5.7102    0.0000 C   0  0  0  0  0  0  0  0  0  0  0  0
    2.0140   -5.7102    0.0000 C   0  0  0  0  0  0  0  0  0  0  0  0
    3.3131   -4.9602    0.0000 C   0  0  0  0  0  0  0  0  0  0  0  0
  1  2  1  0  0  0  0
  2  3  2  0  0  0  0
  2  4  1  0  0  0  0
  4  5  1  0  0  0  0
  6  5  2  0  0  0  0
  5 23  1  0  0  0  0
  7  6  1  0  0  0  0
  8  7  2  0  0  0  0
  8  9  1  0  0  0  0
 22  8  1  0  0  0  0
  9 10  1  0  0  0  0
 10 11  2  0  0  0  0
 10 12  1  0  0  0  0
 13 12  2  0  0  0  0
 12 17  1  0  0  0  0
 14 13  1  0  0  0  0
 15 14  2  0  0  0  0
 16 15  1  0  0  0  0
 17 16  2  0  0  0  0
 17 18  1  0  0  0  0
 18 19  1  0  0  0  0
 19 20  2  0  0  0  0
 19 21  1  0  0  0  0
 23 22  2  0  0  0  0
M  END
> <Inchi_key>
FEJKLNWAOXSSNR-UHFFFAOYSA-N

> <Source>
Mulliner

> <ID>
HT0238

> <H_MFHB>
0

> <CAS>


> <Cholestasis>


> <Name>
benorylate

> <Class>
0

$$$$