

  -INDIGO-08031710012D

 33 35  0  0  0  0  0  0  0  0999 V2000
   21.5725   -5.7803    0.0000 C   0  0  0  0  0  0  0  0  0  0  0  0
   20.2734   -5.0303    0.0000 N   0  0  0  0  0  0  0  0  0  0  0  0
   20.2734   -3.5303    0.0000 C   0  0  0  0  0  0  0  0  0  0  0  0
   21.5725   -2.7803    0.0000 O   0  0  0  0  0  0  0  0  0  0  0  0
   18.9744   -2.7803    0.0000 C   0  0  0  0  0  0  0  0  0  0  0  0
   17.6753   -3.5303    0.0000 C   0  0  0  0  0  0  0  0  0  0  0  0
   16.3763   -2.7803    0.0000 C   0  0  0  0  0  0  0  0  0  0  0  0
   15.0772   -3.5303    0.0000 O   0  0  0  0  0  0  0  0  0  0  0  0
   13.7782   -2.7803    0.0000 C   0  0  0  0  0  0  0  0  0  0  0  0
   12.4791   -3.5303    0.0000 C   0  0  0  0  0  0  0  0  0  0  0  0
   11.1804   -2.7803    0.0000 C   0  0  0  0  0  0  0  0  0  0  0  0
   11.1804   -1.2803    0.0000 C   0  0  0  0  0  0  0  0  0  0  0  0
    9.8810   -0.5303    0.0000 N   0  0  0  0  0  0  0  0  0  0  0  0
    8.5822   -1.2803    0.0000 C   0  0  0  0  0  0  0  0  0  0  0  0
    8.5822   -2.7803    0.0000 O   0  0  0  0  0  0  0  0  0  0  0  0
    7.2832   -0.5303    0.0000 N   0  0  0  0  0  0  0  0  0  0  0  0
    5.9841   -1.2803    0.0000 C   0  0  0  0  0  0  0  0  0  0  0  0
    5.9841   -2.7803    0.0000 C   0  0  0  0  0  0  0  0  0  0  0  0
    4.6851   -3.5303    0.0000 C   0  0  0  0  0  0  0  0  0  0  0  0
    3.3860   -2.7803    0.0000 C   0  0  0  0  0  0  0  0  0  0  0  0
    2.0870   -3.5303    0.0000 Cl  0  0  0  0  0  0  0  0  0  0  0  0
    3.3860   -1.2803    0.0000 C   0  0  0  0  0  0  0  0  0  0  0  0
    4.6851   -0.5303    0.0000 C   0  0  0  0  0  0  0  0  0  0  0  0
    2.0870   -0.5303    0.0000 C   0  0  0  0  0  0  0  0  0  0  0  0
    2.8370    0.7687    0.0000 F   0  0  0  0  0  0  0  0  0  0  0  0
    0.7879    0.2197    0.0000 F   0  0  0  0  0  0  0  0  0  0  0  0
    1.3369   -1.8294    0.0000 F   0  0  0  0  0  0  0  0  0  0  0  0
   12.4791   -0.5303    0.0000 C   0  0  0  0  0  0  0  0  0  0  0  0
   12.4791    0.9697    0.0000 F   0  0  0  0  0  0  0  0  0  0  0  0
   13.7782   -1.2803    0.0000 C   0  0  0  0  0  0  0  0  0  0  0  0
   16.3763   -1.2803    0.0000 C   0  0  0  0  0  0  0  0  0  0  0  0
   17.6753   -0.5303    0.0000 C   0  0  0  0  0  0  0  0  0  0  0  0
   18.9744   -1.2803    0.0000 N   0  0  0  0  0  0  0  0  0  0  0  0
  1  2  1  0  0  0  0
  2  3  1  0  0  0  0
  3  4  2  0  0  0  0
  3  5  1  0  0  0  0
  6  5  2  0  0  0  0
  5 33  1  0  0  0  0
  7  6  1  0  0  0  0
  7  8  1  0  0  0  0
 31  7  2  0  0  0  0
  8  9  1  0  0  0  0
 10  9  2  0  0  0  0
  9 30  1  0  0  0  0
 11 10  1  0  0  0  0
 12 11  2  0  0  0  0
 12 13  1  0  0  0  0
 28 12  1  0  0  0  0
 13 14  1  0  0  0  0
 14 15  2  0  0  0  0
 14 16  1  0  0  0  0
 16 17  1  0  0  0  0
 18 17  2  0  0  0  0
 17 23  1  0  0  0  0
 19 18  1  0  0  0  0
 20 19  2  0  0  0  0
 20 21  1  0  0  0  0
 22 20  1  0  0  0  0
 23 22  2  0  0  0  0
 22 24  1  0  0  0  0
 24 25  1  0  0  0  0
 24 26  1  0  0  0  0
 24 27  1  0  0  0  0
 28 29  1  0  0  0  0
 30 28  2  0  0  0  0
 32 31  1  0  0  0  0
 33 32  2  0  0  0  0
M  END
> <Inchi_key>
FNHKPVJBJVTLMP-UHFFFAOYSA-N

> <Source>
Mulliner

> <ID>
HT1806

> <H_MFHB>
0

> <CAS>


> <Cholestasis>


> <Name>
regorafenib

> <Class>
0


$$$$