
  -INDIGO-08031710012D

 14 15  0  0  0  0  0  0  0  0999 V2000
    0.5881    0.5881    0.0000 Cl  0  0  0  0  0  0  0  0  0  0  0  0
    0.5881   -0.9119    0.0000 C   0  0  0  0  0  0  0  0  0  0  0  0
   -0.7110   -1.6619    0.0000 C   0  0  0  0  0  0  0  0  0  0  0  0
   -0.7110   -3.1619    0.0000 C   0  0  0  0  0  0  0  0  0  0  0  0
    0.5881   -3.9119    0.0000 C   0  0  0  0  0  0  0  0  0  0  0  0
    1.8871   -3.1619    0.0000 C   0  0  0  0  0  0  0  0  0  0  0  0
    3.1862   -3.9119    0.0000 Cl  0  0  0  0  0  0  0  0  0  0  0  0
    1.8871   -1.6619    0.0000 C   0  0  0  0  0  0  0  0  0  0  0  0
    3.1862   -0.9119    0.0000 N   0  0  0  0  0  0  0  0  0  0  0  0
    4.4852   -1.6619    0.0000 C   0  0  0  0  0  0  0  0  0  0  0  0
    4.6420   -3.1537    0.0000 N   0  0  0  0  0  0  0  0  0  0  0  0
    6.1092   -3.4656    0.0000 C   0  0  0  0  0  0  0  0  0  0  0  0
    6.8592   -2.1665    0.0000 C   0  0  0  0  0  0  0  0  0  0  0  0
    5.8555   -1.0518    0.0000 N   0  0  0  0  0  0  0  0  0  0  0  0
  1  2  1  0  0  0  0
  3  2  2  0  0  0  0
  2  8  1  0  0  0  0
  4  3  1  0  0  0  0
  5  4  2  0  0  0  0
  6  5  1  0  0  0  0
  6  7  1  0  0  0  0
  8  6  2  0  0  0  0
  8  9  1  0  0  0  0
  9 10  1  0  0  0  0
 11 10  2  0  0  0  0
 10 14  1  0  0  0  0
 12 11  1  0  0  0  0
 13 12  1  0  0  0  0
 14 13  1  0  0  0  0
M  END
> <Inchi_key>
GJSURZIOUXUGAL-UHFFFAOYSA-N

> <Source>
Mulliner

> <ID>
HT0531

> <H_MFHB>
0

> <CAS>


> <Cholestasis>


> <Name>
clonidine;clonidine hydrochloride

> <Class>
0

$$$$