
  -INDIGO-08031710012D

 31 34  0  0  0  0  0  0  0  0999 V2000
    8.4521    3.3000    0.0000 C   0  0  0  0  0  0  0  0  0  0  0  0
    7.1744    2.5145    0.0000 C   0  0  0  0  0  0  0  0  0  0  0  0
    5.7878    3.0867    0.0000 C   0  0  0  0  0  0  0  0  0  0  0  0
    4.8152    1.9447    0.0000 C   0  0  0  0  0  0  0  0  0  0  0  0
    3.3158    1.9034    0.0000 C   0  0  0  0  0  0  0  0  0  0  0  0
    2.5302    3.1813    0.0000 C   0  0  0  0  0  0  0  0  0  0  0  0
    1.0308    3.1400    0.0000 C   0  0  0  0  0  0  0  0  0  0  0  0
    0.3168    1.8208    0.0000 C   0  0  0  0  0  0  0  0  0  0  0  0
   -1.1825    1.7794    0.0000 C   0  0  0  0  0  0  0  0  0  0  0  0
   -1.8965    0.4602    0.0000 C   0  0  0  0  0  0  0  0  0  0  0  0
   -3.3959    0.4189    0.0000 O   0  0  0  0  0  0  0  0  0  0  0  0
   -1.1109   -0.8177    0.0000 C   0  0  0  0  0  0  0  0  0  0  0  0
    0.3884   -0.7763    0.0000 C   0  0  0  0  0  0  0  0  0  0  0  0
    1.1024    0.5429    0.0000 C   0  0  0  0  0  0  0  0  0  0  0  0
    1.8878   -0.7350    0.0000 C   0  0  0  0  0  0  0  0  0  0  0  0
    2.6018    0.5842    0.0000 C   0  0  0  0  0  0  0  0  0  0  0  0
    4.1012    0.6255    0.0000 F   0  0  0  0  0  0  0  0  0  0  0  0
    3.3874   -0.6937    0.0000 C   0  0  0  0  0  0  0  0  0  0  0  0
    2.6734   -2.0129    0.0000 O   0  0  0  0  0  0  0  0  0  0  0  0
    4.8868   -0.6524    0.0000 C   0  0  0  0  0  0  0  0  0  0  0  0
    5.6005    0.6668    0.0000 C   0  0  0  0  0  0  0  0  0  0  0  0
    6.4945   -0.5377    0.0000 C   0  0  0  0  0  0  0  0  0  0  0  0
    7.0587    1.0190    0.0000 C   0  0  0  0  0  0  0  0  0  0  0  0
    7.5861   -0.3853    0.0000 O   0  0  0  0  0  0  0  0  0  0  0  0
    8.5463    0.8252    0.0000 C   0  0  0  0  0  0  0  0  0  0  0  0
    9.4577    2.0165    0.0000 O   0  0  0  0  0  0  0  0  0  0  0  0
    9.1220   -0.5598    0.0000 C   0  0  0  0  0  0  0  0  0  0  0  0
   10.6096   -0.7535    0.0000 O   0  0  0  0  0  0  0  0  0  0  0  0
   11.1853   -2.1386    0.0000 C   0  0  0  0  0  0  0  0  0  0  0  0
   10.2739   -3.3299    0.0000 O   0  0  0  0  0  0  0  0  0  0  0  0
   12.6729   -2.3323    0.0000 C   0  0  0  0  0  0  0  0  0  0  0  0
  1  2  1  0  0  0  0
  3  2  1  0  0  0  0
  2 23  1  0  0  0  0
  4  3  1  0  0  0  0
  5  4  1  0  0  0  0
  4 21  1  0  0  0  0
  6  5  1  0  0  0  0
  5 16  1  0  0  0  0
  7  6  1  0  0  0  0
  8  7  1  0  0  0  0
  9  8  2  0  0  0  0
  8 14  1  0  0  0  0
 10  9  1  0  0  0  0
 10 11  2  0  0  0  0
 12 10  1  0  0  0  0
 13 12  2  0  0  0  0
 14 13  1  0  0  0  0
 14 15  1  0  0  0  0
 16 14  1  0  0  0  0
 16 17  1  0  0  0  0
 18 16  1  0  0  0  0
 18 19  1  0  0  0  0
 20 18  1  0  0  0  0
 21 20  1  0  0  0  0
 21 22  1  0  0  0  0
 23 21  1  0  0  0  0
 23 24  1  0  0  0  0
 23 25  1  0  0  0  0
 25 26  2  0  0  0  0
 25 27  1  0  0  0  0
 27 28  1  0  0  0  0
 28 29  1  0  0  0  0
 29 30  2  0  0  0  0
 29 31  1  0  0  0  0
M  END
> <Inchi_key>
AKUJBENLRBOFTD-UHFFFAOYSA-N

> <Source>
Mulliner

> <ID>
HT0621

> <H_MFHB>
0

> <CAS>


> <Cholestasis>


> <Name>
dexamethasone acetate

> <Class>
0

$$$$