

  -INDIGO-08031710012D

  6  6  0  0  0  0  0  0  0  0999 V2000
   -2.0490    2.0490    0.0000 C   0  0  0  0  0  0  0  0  0  0  0  0
   -2.0490    0.5490    0.0000 C   0  0  0  0  0  0  0  0  0  0  0  0
   -0.7500   -0.2010    0.0000 N   0  0  0  0  0  0  0  0  0  0  0  0
    0.5490    0.5490    0.0000 C   0  0  0  0  0  0  0  0  0  0  0  0
    0.5490    2.0490    0.0000 C   0  0  0  0  0  0  0  0  0  0  0  0
   -0.7500    2.7990    0.0000 N   0  0  0  0  0  0  0  0  0  0  0  0
  2  1  1  0  0  0  0
  1  6  1  0  0  0  0
  3  2  1  0  0  0  0
  4  3  1  0  0  0  0
  5  4  1  0  0  0  0
  6  5  1  0  0  0  0
M  END
> <Inchi_key>
GLUUGHFHXGJENI-UHFFFAOYSA-N

> <Source>
Mulliner

> <ID>
HT1683

> <H_MFHB>
0

> <CAS>


> <Cholestasis>


> <Name>
piperazine

> <Class>
0


$$$$