

  -INDIGO-08031710012D

 27 30  0  0  0  0  0  0  0  0999 V2000
    0.0881   -4.2483    0.0000 C   0  0  0  0  0  0  0  0  0  0  0  0
    1.5869   -4.1861    0.0000 C   0  0  0  0  0  0  0  0  0  0  0  0
    2.4019   -5.4545    0.0000 C   0  0  0  0  0  0  0  0  0  0  0  0
    3.9304   -5.3924    0.0000 C   0  0  0  0  0  0  0  0  0  0  0  0
    4.6402   -4.0620    0.0000 C   0  0  0  0  0  0  0  0  0  0  0  0
    6.1685   -4.0000    0.0000 C   0  0  0  0  0  0  0  0  0  0  0  0
    6.8724   -5.3247    0.0000 C   0  0  0  0  0  0  0  0  0  0  0  0
    7.0379   -2.8174    0.0000 C   0  0  0  0  0  0  0  0  0  0  0  0
    8.5366   -2.8794    0.0000 O   0  0  0  0  0  0  0  0  0  0  0  0
    9.3396   -1.6125    0.0000 C   0  0  0  0  0  0  0  0  0  0  0  0
    8.6443   -0.2835    0.0000 O   0  0  0  0  0  0  0  0  0  0  0  0
   10.8386   -1.6747    0.0000 C   0  0  0  0  0  0  0  0  0  0  0  0
   11.6416   -0.4078    0.0000 C   0  0  0  0  0  0  0  0  0  0  0  0
   13.1403   -0.4699    0.0000 C   0  0  0  0  0  0  0  0  0  0  0  0
   13.8359   -1.7989    0.0000 O   0  0  0  0  0  0  0  0  0  0  0  0
   13.9435    0.7969    0.0000 O   0  0  0  0  0  0  0  0  0  0  0  0
    6.2106   -1.4740    0.0000 O   0  0  0  0  0  0  0  0  0  0  0  0
    4.7664   -1.5327    0.0000 C   0  0  0  0  0  0  0  0  0  0  0  0
    4.3192   -0.0988    0.0000 O   0  0  0  0  0  0  0  0  0  0  0  0
    2.9171    0.5335    0.0000 C   0  0  0  0  0  0  0  0  0  0  0  0
    2.8562    2.0323    0.0000 C   0  0  0  0  0  0  0  0  0  0  0  0
    1.5697   -0.2103    0.0000 C   0  0  0  0  0  0  0  0  0  0  0  0
    1.3310   -1.6721    0.0000 C   0  0  0  0  0  0  0  0  0  0  0  0
    2.2964   -2.8503    0.0000 C   0  0  0  0  0  0  0  0  0  0  0  0
    3.8247   -2.7882    0.0000 C   0  0  0  0  0  0  0  0  0  0  0  0
    3.7630   -1.2689    0.0000 O   0  0  0  0  0  0  0  0  0  0  0  0
    2.6021   -0.9321    0.0000 O   0  0  0  0  0  0  0  0  0  0  0  0
  1  2  1  0  0  0  0
  3  2  1  0  0  0  0
  2 24  1  0  0  0  0
  4  3  1  0  0  0  0
  5  4  1  0  0  0  0
  6  5  1  0  0  0  0
  5 25  1  0  0  0  0
  6  7  1  0  0  0  0
  8  6  1  0  0  0  0
  8  9  1  0  0  0  0
 17  8  1  0  0  0  0
  9 10  1  0  0  0  0
 10 11  2  0  0  0  0
 10 12  1  0  0  0  0
 12 13  1  0  0  0  0
 13 14  1  0  0  0  0
 14 15  2  0  0  0  0
 14 16  1  0  0  0  0
 18 17  1  0  0  0  0
 19 18  1  0  0  0  0
 18 25  1  0  0  0  0
 20 19  1  0  0  0  0
 20 21  1  0  0  0  0
 20 22  1  0  0  0  0
 27 20  1  0  0  0  0
 22 23  1  0  0  0  0
 23 24  1  0  0  0  0
 24 25  1  0  0  0  0
 25 26  1  0  0  0  0
 26 27  1  0  0  0  0
M  END
> <Inchi_key>
FIHJKUPKCHIPAT-UHFFFAOYSA-N

> <Source>
Mulliner

> <ID>
HT0185

> <H_MFHB>
0

> <CAS>


> <Cholestasis>


> <Name>
artesunate

> <Class>
0


$$$$