

  -INDIGO-08031710012D

 19 21  0  0  0  0  0  0  0  0999 V2000
   10.6604   -2.0518    0.0000 O   0  0  0  0  0  0  0  0  0  0  0  0
    9.1604   -2.0518    0.0000 C   0  0  0  0  0  0  0  0  0  0  0  0
    8.4105   -3.3509    0.0000 O   0  0  0  0  0  0  0  0  0  0  0  0
    8.4105   -0.7528    0.0000 C   0  0  0  0  0  0  0  0  0  0  0  0
    6.9105   -0.7528    0.0000 N   0  0  0  0  0  0  0  0  0  0  0  0
    6.1590    0.5485    0.0000 C   0  0  0  0  0  0  0  0  0  0  0  0
    6.9101    1.8469    0.0000 O   0  0  0  0  0  0  0  0  0  0  0  0
    4.6579    0.5511    0.0000 C   0  0  0  0  0  0  0  0  0  0  0  0
    3.9081    1.8444    0.0000 C   0  0  0  0  0  0  0  0  0  0  0  0
    2.4083    1.8444    0.0000 C   0  0  0  0  0  0  0  0  0  0  0  0
    1.6575    0.5487    0.0000 C   0  0  0  0  0  0  0  0  0  0  0  0
    2.4089   -0.7526    0.0000 C   0  0  0  0  0  0  0  0  0  0  0  0
    1.6586   -2.0535    0.0000 C   0  0  0  0  0  0  0  0  0  0  0  0
    2.4094   -3.3484    0.0000 C   0  0  0  0  0  0  0  0  0  0  0  0
    3.9091   -3.3483    0.0000 C   0  0  0  0  0  0  0  0  0  0  0  0
    4.6592   -2.0543    0.0000 C   0  0  0  0  0  0  0  0  0  0  0  0
    6.1592   -2.0543    0.0000 C   0  0  0  0  0  0  0  0  0  0  0  0
    6.9091   -3.3533    0.0000 O   0  0  0  0  0  0  0  0  0  0  0  0
    3.9076   -0.7526    0.0000 C   0  0  0  0  0  0  0  0  0  0  0  0
  1  2  1  0  0  0  0
  2  3  2  0  0  0  0
  2  4  1  0  0  0  0
  4  5  1  0  0  0  0
  6  5  1  0  0  0  0
  5 17  1  0  0  0  0
  6  7  2  0  0  0  0
  8  6  1  0  0  0  0
  9  8  1  0  0  0  0
  8 19  2  0  0  0  0
 10  9  2  0  0  0  0
 11 10  1  0  0  0  0
 12 11  2  0  0  0  0
 12 13  1  0  0  0  0
 19 12  1  0  0  0  0
 13 14  2  0  0  0  0
 14 15  1  0  0  0  0
 15 16  2  0  0  0  0
 17 16  1  0  0  0  0
 16 19  1  0  0  0  0
 17 18  2  0  0  0  0
M  END
> <Inchi_key>
GCUCIFQCGJIRNT-UHFFFAOYSA-N

> <Source>
Mulliner

> <ID>
HT0116

> <H_MFHB>
0

> <CAS>


> <Cholestasis>


> <Name>
alrestatin

> <Class>
0


$$$$