
  -INDIGO-08031710012D

 32 35  0  0  0  0  0  0  0  0999 V2000
   17.1125    2.2599    0.0000 C   0  0  0  0  0  0  0  0  0  0  0  0
   16.2097    3.4577    0.0000 C   0  0  0  0  0  0  0  0  0  0  0  0
   14.7208    3.2748    0.0000 C   0  0  0  0  0  0  0  0  0  0  0  0
   13.8180    4.4727    0.0000 C   0  0  0  0  0  0  0  0  0  0  0  0
   12.3294    4.2897    0.0000 C   0  0  0  0  0  0  0  0  0  0  0  0
   11.7434    2.9089    0.0000 O   0  0  0  0  0  0  0  0  0  0  0  0
   11.4263    5.4876    0.0000 O   0  0  0  0  0  0  0  0  0  0  0  0
    9.9375    5.3046    0.0000 C   0  0  0  0  0  0  0  0  0  0  0  0
   10.0424    3.8083    0.0000 C   0  0  0  0  0  0  0  0  0  0  0  0
    8.6517    3.2462    0.0000 C   0  0  0  0  0  0  0  0  0  0  0  0
    7.6873    4.3952    0.0000 C   0  0  0  0  0  0  0  0  0  0  0  0
    6.1882    4.4474    0.0000 C   0  0  0  0  0  0  0  0  0  0  0  0
    5.3935    3.1752    0.0000 C   0  0  0  0  0  0  0  0  0  0  0  0
    3.8944    3.2274    0.0000 C   0  0  0  0  0  0  0  0  0  0  0  0
    3.1901    4.5518    0.0000 C   0  0  0  0  0  0  0  0  0  0  0  0
    1.6910    4.6040    0.0000 C   0  0  0  0  0  0  0  0  0  0  0  0
    0.9867    5.9283    0.0000 C   0  0  0  0  0  0  0  0  0  0  0  0
   -0.5124    5.9805    0.0000 O   0  0  0  0  0  0  0  0  0  0  0  0
    1.7814    7.2005    0.0000 C   0  0  0  0  0  0  0  0  0  0  0  0
    3.2804    7.1483    0.0000 C   0  0  0  0  0  0  0  0  0  0  0  0
    3.9848    5.8239    0.0000 C   0  0  0  0  0  0  0  0  0  0  0  0
    4.7795    7.0961    0.0000 C   0  0  0  0  0  0  0  0  0  0  0  0
    5.4839    5.7717    0.0000 C   0  0  0  0  0  0  0  0  0  0  0  0
    6.2786    7.0439    0.0000 C   0  0  0  0  0  0  0  0  0  0  0  0
    5.5742    8.3682    0.0000 O   0  0  0  0  0  0  0  0  0  0  0  0
    7.7779    6.9917    0.0000 C   0  0  0  0  0  0  0  0  0  0  0  0
    8.4820    5.6673    0.0000 C   0  0  0  0  0  0  0  0  0  0  0  0
    9.3848    6.8654    0.0000 C   0  0  0  0  0  0  0  0  0  0  0  0
   10.4751    6.7050    0.0000 C   0  0  0  0  0  0  0  0  0  0  0  0
    9.5308    7.8706    0.0000 O   0  0  0  0  0  0  0  0  0  0  0  0
   11.9564    6.9398    0.0000 C   0  0  0  0  0  0  0  0  0  0  0  0
   12.4940    8.3403    0.0000 O   0  0  0  0  0  0  0  0  0  0  0  0
  1  2  1  0  0  0  0
  2  3  1  0  0  0  0
  3  4  1  0  0  0  0
  4  5  1  0  0  0  0
  5  6  2  0  0  0  0
  5  7  1  0  0  0  0
  7  8  1  0  0  0  0
  9  8  1  0  0  0  0
  8 27  1  0  0  0  0
  8 29  1  0  0  0  0
 10  9  1  0  0  0  0
 11 10  1  0  0  0  0
 12 11  1  0  0  0  0
 11 27  1  0  0  0  0
 13 12  1  0  0  0  0
 12 23  1  0  0  0  0
 14 13  1  0  0  0  0
 15 14  1  0  0  0  0
 16 15  2  0  0  0  0
 15 21  1  0  0  0  0
 17 16  1  0  0  0  0
 17 18  2  0  0  0  0
 19 17  1  0  0  0  0
 20 19  1  0  0  0  0
 21 20  1  0  0  0  0
 21 22  1  0  0  0  0
 23 21  1  0  0  0  0
 24 23  1  0  0  0  0
 24 25  1  0  0  0  0
 26 24  1  0  0  0  0
 27 26  1  0  0  0  0
 27 28  1  0  0  0  0
 29 30  2  0  0  0  0
 29 31  1  0  0  0  0
 31 32  1  0  0  0  0
M  END
> <Inchi_key>
FZCHYNWYXKICIO-UHFFFAOYSA-N

> <Source>
Mulliner

> <ID>
HT1054

> <H_MFHB>
0

> <CAS>


> <Cholestasis>


> <Name>
hydrocortisone valerate

> <Class>
0

$$$$