
  -INDIGO-08031710012D

 24 24  0  0  0  0  0  0  0  0999 V2000
   -7.5009   -7.7676    0.0000 C   0  0  0  0  0  0  0  0  0  0  0  0
   -8.7998   -7.0176    0.0000 C   0  0  0  0  0  0  0  0  0  0  0  0
  -10.0990   -7.7676    0.0000 O   0  0  0  0  0  0  0  0  0  0  0  0
   -8.7998   -5.5176    0.0000 N   0  0  0  0  0  0  0  0  0  0  0  0
   -7.5009   -4.7676    0.0000 C   0  0  0  0  0  0  0  0  0  0  0  0
   -6.2017   -5.5176    0.0000 C   0  0  0  0  0  0  0  0  0  0  0  0
   -4.9028   -4.7676    0.0000 C   0  0  0  0  0  0  0  0  0  0  0  0
   -3.6038   -5.5176    0.0000 S   0  0  0  0  0  0  0  0  0  0  0  0
   -2.3046   -4.7676    0.0000 C   0  0  0  0  0  0  0  0  0  0  0  0
   -2.3046   -3.2676    0.0000 O   0  0  0  0  0  0  0  0  0  0  0  0
   -1.0057   -5.5176    0.0000 C   0  0  0  0  0  0  0  0  0  0  0  0
    0.2932   -6.2676    0.0000 C   0  0  0  0  0  0  0  0  0  0  0  0
   -1.7556   -6.8167    0.0000 C   0  0  0  0  0  0  0  0  0  0  0  0
   -0.2558   -4.2186    0.0000 O   0  0  0  0  0  0  0  0  0  0  0  0
    1.2443   -4.2186    0.0000 C   0  0  0  0  0  0  0  0  0  0  0  0
    1.9942   -2.9196    0.0000 C   0  0  0  0  0  0  0  0  0  0  0  0
    3.4943   -2.9196    0.0000 C   0  0  0  0  0  0  0  0  0  0  0  0
    4.2442   -4.2186    0.0000 C   0  0  0  0  0  0  0  0  0  0  0  0
    5.7443   -4.2186    0.0000 Cl  0  0  0  0  0  0  0  0  0  0  0  0
    3.4943   -5.5176    0.0000 C   0  0  0  0  0  0  0  0  0  0  0  0
    1.9942   -5.5176    0.0000 C   0  0  0  0  0  0  0  0  0  0  0  0
   -7.5009   -3.2676    0.0000 C   0  0  0  0  0  0  0  0  0  0  0  0
   -8.7998   -2.5176    0.0000 O   0  0  0  0  0  0  0  0  0  0  0  0
   -6.2017   -2.5176    0.0000 O   0  0  0  0  0  0  0  0  0  0  0  0
  1  2  1  0  0  0  0
  2  3  2  0  0  0  0
  2  4  1  0  0  0  0
  4  5  1  0  0  0  0
  5  6  1  0  0  0  0
  5 22  1  0  0  0  0
  6  7  1  0  0  0  0
  7  8  1  0  0  0  0
  8  9  1  0  0  0  0
  9 10  2  0  0  0  0
  9 11  1  0  0  0  0
 11 12  1  0  0  0  0
 11 13  1  0  0  0  0
 11 14  1  0  0  0  0
 14 15  1  0  0  0  0
 16 15  2  0  0  0  0
 15 21  1  0  0  0  0
 17 16  1  0  0  0  0
 18 17  2  0  0  0  0
 18 19  1  0  0  0  0
 20 18  1  0  0  0  0
 21 20  2  0  0  0  0
 22 23  2  0  0  0  0
 22 24  1  0  0  0  0
M  END
> <Inchi_key>
FPCXDWYBOVVFFE-UHFFFAOYSA-N

> <Source>
Mulliner

> <ID>
HT1877

> <H_MFHB>
0

> <CAS>
54657-98-6

> <Cholestasis>


> <Name>
serfibrate

> <Class>
0

$$$$