

  -INDIGO-08031710012D

 34 37  0  0  0  0  0  0  0  0999 V2000
   13.1940   -8.5356    0.0000 C   0  0  0  0  0  0  0  0  0  0  0  0
   12.5790   -7.1676    0.0000 C   0  0  0  0  0  0  0  0  0  0  0  0
   11.0867   -7.0159    0.0000 N   0  0  0  0  0  0  0  0  0  0  0  0
   10.4718   -5.6477    0.0000 C   0  0  0  0  0  0  0  0  0  0  0  0
   11.3494   -4.4311    0.0000 C   0  0  0  0  0  0  0  0  0  0  0  0
   10.2094   -8.2324    0.0000 C   0  0  0  0  0  0  0  0  0  0  0  0
    8.7171   -8.0808    0.0000 C   0  0  0  0  0  0  0  0  0  0  0  0
    8.1021   -6.7127    0.0000 O   0  0  0  0  0  0  0  0  0  0  0  0
    7.8395   -9.2975    0.0000 O   0  0  0  0  0  0  0  0  0  0  0  0
    6.3472   -9.1459    0.0000 C   0  0  0  0  0  0  0  0  0  0  0  0
    5.4698  -10.3625    0.0000 C   0  0  0  0  0  0  0  0  0  0  0  0
    6.0848  -11.7306    0.0000 O   0  0  0  0  0  0  0  0  0  0  0  0
    3.9775  -10.2109    0.0000 C   0  0  0  0  0  0  0  0  0  0  0  0
    4.5442  -11.5997    0.0000 O   0  0  0  0  0  0  0  0  0  0  0  0
    4.0507   -8.7127    0.0000 C   0  0  0  0  0  0  0  0  0  0  0  0
    2.6486   -8.1799    0.0000 C   0  0  0  0  0  0  0  0  0  0  0  0
    1.7086   -9.3490    0.0000 C   0  0  0  0  0  0  0  0  0  0  0  0
    0.2109   -9.4327    0.0000 C   0  0  0  0  0  0  0  0  0  0  0  0
   -0.6103   -8.1776    0.0000 C   0  0  0  0  0  0  0  0  0  0  0  0
   -2.1080   -8.2613    0.0000 C   0  0  0  0  0  0  0  0  0  0  0  0
   -2.7842   -9.6003    0.0000 C   0  0  0  0  0  0  0  0  0  0  0  0
   -4.2819   -9.6840    0.0000 C   0  0  0  0  0  0  0  0  0  0  0  0
   -4.9583  -11.0227    0.0000 C   0  0  0  0  0  0  0  0  0  0  0  0
   -6.4560  -11.1064    0.0000 O   0  0  0  0  0  0  0  0  0  0  0  0
   -4.1370  -12.2779    0.0000 C   0  0  0  0  0  0  0  0  0  0  0  0
   -2.6393  -12.1942    0.0000 C   0  0  0  0  0  0  0  0  0  0  0  0
   -1.9629  -10.8553    0.0000 C   0  0  0  0  0  0  0  0  0  0  0  0
   -1.1416  -12.1105    0.0000 C   0  0  0  0  0  0  0  0  0  0  0  0
   -0.4652  -10.7716    0.0000 C   0  0  0  0  0  0  0  0  0  0  0  0
    0.3561  -12.0267    0.0000 C   0  0  0  0  0  0  0  0  0  0  0  0
   -0.3204  -13.3656    0.0000 O   0  0  0  0  0  0  0  0  0  0  0  0
    1.8538  -11.9430    0.0000 C   0  0  0  0  0  0  0  0  0  0  0  0
    2.5299  -10.6041    0.0000 C   0  0  0  0  0  0  0  0  0  0  0  0
    3.4576  -11.7829    0.0000 C   0  0  0  0  0  0  0  0  0  0  0  0
  1  2  1  0  0  0  0
  2  3  1  0  0  0  0
  3  4  1  0  0  0  0
  3  6  1  0  0  0  0
  4  5  1  0  0  0  0
  6  7  1  0  0  0  0
  7  8  2  0  0  0  0
  7  9  1  0  0  0  0
  9 10  1  0  0  0  0
 10 11  1  0  0  0  0
 11 12  2  0  0  0  0
 11 13  1  0  0  0  0
 13 14  1  0  0  0  0
 15 13  1  0  0  0  0
 13 33  1  0  0  0  0
 16 15  1  0  0  0  0
 17 16  1  0  0  0  0
 18 17  1  0  0  0  0
 17 33  1  0  0  0  0
 19 18  1  0  0  0  0
 18 29  1  0  0  0  0
 20 19  1  0  0  0  0
 21 20  1  0  0  0  0
 22 21  2  0  0  0  0
 21 27  1  0  0  0  0
 23 22  1  0  0  0  0
 23 24  2  0  0  0  0
 25 23  1  0  0  0  0
 26 25  1  0  0  0  0
 27 26  1  0  0  0  0
 27 28  1  0  0  0  0
 29 27  1  0  0  0  0
 30 29  1  0  0  0  0
 30 31  1  0  0  0  0
 32 30  1  0  0  0  0
 33 32  1  0  0  0  0
 33 34  1  0  0  0  0
M  END
> <Inchi_key>
FWFVLWGEFDIZMJ-UHFFFAOYSA-N

> <Source>
Mulliner

> <ID>
HT1046

> <H_MFHB>
0

> <CAS>


> <Cholestasis>


> <Name>
hydrocortamate

> <Class>
0


$$$$