
  -INDIGO-08031710012D

 32 36  0  0  0  0  0  0  0  0999 V2000
   -0.0695    3.0387    0.0000 C   0  0  0  0  0  0  0  0  0  0  0  0
    1.2723    2.3679    0.0000 C   0  0  0  0  0  0  0  0  0  0  0  0
    0.0577    1.4875    0.0000 C   0  0  0  0  0  0  0  0  0  0  0  0
    2.0293    3.6629    0.0000 O   0  0  0  0  0  0  0  0  0  0  0  0
    3.4946    3.3431    0.0000 C   0  0  0  0  0  0  0  0  0  0  0  0
    4.8684    3.9459    0.0000 C   0  0  0  0  0  0  0  0  0  0  0  0
    5.8660    2.8255    0.0000 C   0  0  0  0  0  0  0  0  0  0  0  0
    7.3659    2.8175    0.0000 C   0  0  0  0  0  0  0  0  0  0  0  0
    8.1229    4.1125    0.0000 C   0  0  0  0  0  0  0  0  0  0  0  0
    9.6228    4.1043    0.0000 C   0  0  0  0  0  0  0  0  0  0  0  0
   10.3801    5.3993    0.0000 F   0  0  0  0  0  0  0  0  0  0  0  0
   10.3660    2.8012    0.0000 C   0  0  0  0  0  0  0  0  0  0  0  0
   11.8659    2.7931    0.0000 C   0  0  0  0  0  0  0  0  0  0  0  0
   12.6089    1.4900    0.0000 C   0  0  0  0  0  0  0  0  0  0  0  0
   14.1088    1.4819    0.0000 O   0  0  0  0  0  0  0  0  0  0  0  0
   11.8519    0.1951    0.0000 C   0  0  0  0  0  0  0  0  0  0  0  0
   10.3517    0.2032    0.0000 C   0  0  0  0  0  0  0  0  0  0  0  0
    9.6090    1.5063    0.0000 C   0  0  0  0  0  0  0  0  0  0  0  0
    8.8518    0.2113    0.0000 C   0  0  0  0  0  0  0  0  0  0  0  0
    8.1088    1.5144    0.0000 C   0  0  0  0  0  0  0  0  0  0  0  0
    6.6089    1.5225    0.0000 F   0  0  0  0  0  0  0  0  0  0  0  0
    7.3519    0.2195    0.0000 C   0  0  0  0  0  0  0  0  0  0  0  0
    8.0948   -1.0836    0.0000 O   0  0  0  0  0  0  0  0  0  0  0  0
    5.8519    0.2276    0.0000 C   0  0  0  0  0  0  0  0  0  0  0  0
    5.1090    1.5307    0.0000 C   0  0  0  0  0  0  0  0  0  0  0  0
    4.4675    0.1747    0.0000 C   0  0  0  0  0  0  0  0  0  0  0  0
    3.6434    1.8505    0.0000 C   0  0  0  0  0  0  0  0  0  0  0  0
    2.2699    1.2478    0.0000 O   0  0  0  0  0  0  0  0  0  0  0  0
    3.2473    0.4037    0.0000 C   0  0  0  0  0  0  0  0  0  0  0  0
    4.3022   -0.6627    0.0000 O   0  0  0  0  0  0  0  0  0  0  0  0
    1.7965    0.0233    0.0000 C   0  0  0  0  0  0  0  0  0  0  0  0
    1.4004   -1.4234    0.0000 O   0  0  0  0  0  0  0  0  0  0  0  0
  1  2  1  0  0  0  0
  2  3  1  0  0  0  0
  4  2  1  0  0  0  0
  2 28  1  0  0  0  0
  5  4  1  0  0  0  0
  6  5  1  0  0  0  0
  5 27  1  0  0  0  0
  7  6  1  0  0  0  0
  8  7  1  0  0  0  0
  7 25  1  0  0  0  0
  9  8  1  0  0  0  0
  8 20  1  0  0  0  0
 10  9  1  0  0  0  0
 10 11  1  0  0  0  0
 12 10  1  0  0  0  0
 13 12  2  0  0  0  0
 12 18  1  0  0  0  0
 14 13  1  0  0  0  0
 14 15  2  0  0  0  0
 16 14  1  0  0  0  0
 17 16  2  0  0  0  0
 18 17  1  0  0  0  0
 18 19  1  0  0  0  0
 20 18  1  0  0  0  0
 20 21  1  0  0  0  0
 22 20  1  0  0  0  0
 22 23  1  0  0  0  0
 24 22  1  0  0  0  0
 25 24  1  0  0  0  0
 25 26  1  0  0  0  0
 27 25  1  0  0  0  0
 28 27  1  0  0  0  0
 27 29  1  0  0  0  0
 29 30  2  0  0  0  0
 29 31  1  0  0  0  0
 31 32  1  0  0  0  0
M  END
> <Inchi_key>
FEBLZLNTKCEFIT-UHFFFAOYSA-N

> <Source>
Mulliner

> <ID>
HT0904

> <H_MFHB>
0

> <CAS>


> <Cholestasis>


> <Name>
fluocinolone acetonide;fluocinolone

> <Class>
0

$$$$