

  -INDIGO-08031710012D

 28 31  0  0  0  0  0  0  0  0999 V2000
    0.5076    1.9065    0.0000 C   0  0  0  0  0  0  0  0  0  0  0  0
    1.8090    1.1607    0.0000 C   0  0  0  0  0  0  0  0  0  0  0  0
    3.1772    1.7753    0.0000 C   0  0  0  0  0  0  0  0  0  0  0  0
    4.1845    0.6638    0.0000 C   0  0  0  0  0  0  0  0  0  0  0  0
    5.6847    0.6687    0.0000 C   0  0  0  0  0  0  0  0  0  0  0  0
    6.4304    1.9702    0.0000 C   0  0  0  0  0  0  0  0  0  0  0  0
    5.6762    3.2668    0.0000 Cl  0  0  0  0  0  0  0  0  0  0  0  0
    7.9303    1.9751    0.0000 C   0  0  0  0  0  0  0  0  0  0  0  0
    8.6845    0.6785    0.0000 C   0  0  0  0  0  0  0  0  0  0  0  0
   10.1847    0.6834    0.0000 C   0  0  0  0  0  0  0  0  0  0  0  0
   10.9389   -0.6132    0.0000 C   0  0  0  0  0  0  0  0  0  0  0  0
   12.4388   -0.6083    0.0000 O   0  0  0  0  0  0  0  0  0  0  0  0
   10.1932   -1.9147    0.0000 C   0  0  0  0  0  0  0  0  0  0  0  0
    8.6930   -1.9195    0.0000 C   0  0  0  0  0  0  0  0  0  0  0  0
    7.9388   -0.6230    0.0000 C   0  0  0  0  0  0  0  0  0  0  0  0
    7.1931   -1.9244    0.0000 C   0  0  0  0  0  0  0  0  0  0  0  0
    6.4389   -0.6278    0.0000 C   0  0  0  0  0  0  0  0  0  0  0  0
    5.6932   -1.9293    0.0000 C   0  0  0  0  0  0  0  0  0  0  0  0
    6.4472   -3.2259    0.0000 O   0  0  0  0  0  0  0  0  0  0  0  0
    4.1931   -1.9342    0.0000 C   0  0  0  0  0  0  0  0  0  0  0  0
    3.4388   -0.6376    0.0000 C   0  0  0  0  0  0  0  0  0  0  0  0
    2.5826   -1.8692    0.0000 C   0  0  0  0  0  0  0  0  0  0  0  0
    1.9707   -0.3306    0.0000 C   0  0  0  0  0  0  0  0  0  0  0  0
    1.4868   -1.7504    0.0000 O   0  0  0  0  0  0  0  0  0  0  0  0
    0.4899   -0.5700    0.0000 C   0  0  0  0  0  0  0  0  0  0  0  0
   -0.4580    0.5926    0.0000 O   0  0  0  0  0  0  0  0  0  0  0  0
   -0.0432   -1.9722    0.0000 C   0  0  0  0  0  0  0  0  0  0  0  0
   -1.5239   -2.2116    0.0000 O   0  0  0  0  0  0  0  0  0  0  0  0
  1  2  1  0  0  0  0
  3  2  1  0  0  0  0
  2 23  1  0  0  0  0
  4  3  1  0  0  0  0
  5  4  1  0  0  0  0
  4 21  1  0  0  0  0
  6  5  1  0  0  0  0
  5 17  1  0  0  0  0
  6  7  1  0  0  0  0
  8  6  1  0  0  0  0
  9  8  1  0  0  0  0
 10  9  2  0  0  0  0
  9 15  1  0  0  0  0
 11 10  1  0  0  0  0
 11 12  2  0  0  0  0
 13 11  1  0  0  0  0
 14 13  2  0  0  0  0
 15 14  1  0  0  0  0
 15 16  1  0  0  0  0
 17 15  1  0  0  0  0
 18 17  1  0  0  0  0
 18 19  1  0  0  0  0
 20 18  1  0  0  0  0
 21 20  1  0  0  0  0
 21 22  1  0  0  0  0
 23 21  1  0  0  0  0
 23 24  1  0  0  0  0
 23 25  1  0  0  0  0
 25 26  2  0  0  0  0
 25 27  1  0  0  0  0
 27 28  1  0  0  0  0
M  END
> <Inchi_key>
FJXOGVLKCZQRDN-UHFFFAOYSA-N

> <Source>
Mulliner , Kotsampasakou

> <ID>
EK0015;HT0090

> <H_MFHB>
0

> <CAS>


> <Cholestasis>
0

> <Name>
alclometasone

> <Class>
0


$$$$