
  -INDIGO-08031710012D

 42 43  0  0  0  0  0  0  0  0999 V2000
   -1.2992   -4.8711    0.0000 C   0  0  0  0  0  0  0  0  0  0  0  0
    0.0012   -5.6183    0.0000 C   0  0  0  0  0  0  0  0  0  0  0  0
    1.2988   -4.8654    0.0000 C   0  0  0  0  0  0  0  0  0  0  0  0
    2.5993   -5.6125    0.0000 C   0  0  0  0  0  0  0  0  0  0  0  0
    3.8969   -4.8596    0.0000 C   0  0  0  0  0  0  0  0  0  0  0  0
    5.1973   -5.6067    0.0000 C   0  0  0  0  0  0  0  0  0  0  0  0
    6.4949   -4.8539    0.0000 C   0  0  0  0  0  0  0  0  0  0  0  0
    7.7954   -5.6009    0.0000 C   0  0  0  0  0  0  0  0  0  0  0  0
    6.4916   -3.3538    0.0000 C   0  0  0  0  0  0  0  0  0  0  0  0
    7.7888   -2.6009    0.0000 C   0  0  0  0  0  0  0  0  0  0  0  0
    7.7856   -1.1009    0.0000 C   0  0  0  0  0  0  0  0  0  0  0  0
    9.0828   -0.3482    0.0000 C   0  0  0  0  0  0  0  0  0  0  0  0
    9.0795    1.1519    0.0000 C   0  0  0  0  0  0  0  0  0  0  0  0
   10.3836   -1.0952    0.0000 C   0  0  0  0  0  0  0  0  0  0  0  0
   11.6808   -0.3422    0.0000 C   0  0  0  0  0  0  0  0  0  0  0  0
   12.9817   -1.0895    0.0000 C   0  0  0  0  0  0  0  0  0  0  0  0
   12.9850   -2.5894    0.0000 C   0  0  0  0  0  0  0  0  0  0  0  0
   11.6877   -3.3424    0.0000 C   0  0  0  0  0  0  0  0  0  0  0  0
   14.2858   -3.3364    0.0000 C   0  0  0  0  0  0  0  0  0  0  0  0
   14.2891   -4.8365    0.0000 O   0  0  0  0  0  0  0  0  0  0  0  0
   15.5830   -2.5836    0.0000 C   0  0  0  0  0  0  0  0  0  0  0  0
   15.5797   -1.0837    0.0000 C   0  0  0  0  0  0  0  0  0  0  0  0
   14.2789   -0.3364    0.0000 C   0  0  0  0  0  0  0  0  0  0  0  0
   13.5260    0.9609    0.0000 C   0  0  0  0  0  0  0  0  0  0  0  0
   15.0263    0.9642    0.0000 C   0  0  0  0  0  0  0  0  0  0  0  0
    0.0045   -7.1182    0.0000 C   0  0  0  0  0  0  0  0  0  0  0  0
   -1.2927   -7.8710    0.0000 C   0  0  0  0  0  0  0  0  0  0  0  0
   -2.5935   -7.1240    0.0000 C   0  0  0  0  0  0  0  0  0  0  0  0
   -3.8907   -7.8768    0.0000 C   0  0  0  0  0  0  0  0  0  0  0  0
   -3.8875   -9.3769    0.0000 C   0  0  0  0  0  0  0  0  0  0  0  0
   -5.1916   -7.1298    0.0000 C   0  0  0  0  0  0  0  0  0  0  0  0
   -5.5831   -5.6817    0.0000 C   0  0  0  0  0  0  0  0  0  0  0  0
   -5.4558   -4.1871    0.0000 C   0  0  0  0  0  0  0  0  0  0  0  0
   -4.3973   -3.1242    0.0000 C   0  0  0  0  0  0  0  0  0  0  0  0
   -2.9476   -3.5091    0.0000 C   0  0  0  0  0  0  0  0  0  0  0  0
   -4.7888   -1.6760    0.0000 C   0  0  0  0  0  0  0  0  0  0  0  0
   -3.7303   -0.6131    0.0000 O   0  0  0  0  0  0  0  0  0  0  0  0
   -6.2384   -1.2911    0.0000 C   0  0  0  0  0  0  0  0  0  0  0  0
   -7.2966   -2.3542    0.0000 C   0  0  0  0  0  0  0  0  0  0  0  0
   -6.9054   -3.8022    0.0000 C   0  0  0  0  0  0  0  0  0  0  0  0
   -8.2634   -4.4390    0.0000 C   0  0  0  0  0  0  0  0  0  0  0  0
   -7.5360   -5.1630    0.0000 C   0  0  0  0  0  0  0  0  0  0  0  0
  1  2  1  0  0  0  0
  2  3  2  0  0  0  0
  2 26  1  0  0  0  0
  3  4  1  0  0  0  0
  4  5  2  0  0  0  0
  5  6  1  0  0  0  0
  6  7  2  0  0  0  0
  7  8  1  0  0  0  0
  7  9  1  0  0  0  0
  9 10  2  0  0  0  0
 10 11  1  0  0  0  0
 11 12  2  0  0  0  0
 12 13  1  0  0  0  0
 12 14  1  0  0  0  0
 14 15  2  0  0  0  0
 15 16  1  0  0  0  0
 17 16  2  0  0  0  0
 16 23  1  0  0  0  0
 17 18  1  0  0  0  0
 19 17  1  0  0  0  0
 19 20  2  0  0  0  0
 21 19  1  0  0  0  0
 22 21  1  0  0  0  0
 23 22  1  0  0  0  0
 23 24  1  0  0  0  0
 23 25  1  0  0  0  0
 26 27  2  0  0  0  0
 27 28  1  0  0  0  0
 28 29  2  0  0  0  0
 29 30  1  0  0  0  0
 29 31  1  0  0  0  0
 31 32  2  0  0  0  0
 32 33  1  0  0  0  0
 34 33  2  0  0  0  0
 33 40  1  0  0  0  0
 34 35  1  0  0  0  0
 36 34  1  0  0  0  0
 36 37  2  0  0  0  0
 38 36  1  0  0  0  0
 39 38  1  0  0  0  0
 40 39  1  0  0  0  0
 40 41  1  0  0  0  0
 40 42  1  0  0  0  0
M  END
> <Inchi_key>
FDSDTBUPSURDBL-DDNSABDPSA-N

> <Source>
Mulliner

> <ID>
HT3935

> <H_MFHB>
0

> <CAS>


> <Cholestasis>


> <Name>


> <Class>
0

$$$$