
  -INDIGO-08031710012D

 16 17  0  0  0  0  0  0  0  0999 V2000
    2.0779    1.5956    0.0000 C   0  0  0  0  0  0  0  0  0  0  0  0
    2.8501    0.3097    0.0000 C   0  0  0  0  0  0  0  0  0  0  0  0
    2.1225   -1.0021    0.0000 C   0  0  0  0  0  0  0  0  0  0  0  0
    1.9133   -2.4874    0.0000 N   0  0  0  0  0  0  0  0  0  0  0  0
    0.4360   -2.7474    0.0000 C   0  0  0  0  0  0  0  0  0  0  0  0
   -0.2220   -4.0954    0.0000 O   0  0  0  0  0  0  0  0  0  0  0  0
   -0.2678   -1.4228    0.0000 N   0  0  0  0  0  0  0  0  0  0  0  0
   -1.7532   -1.2136    0.0000 C   0  0  0  0  0  0  0  0  0  0  0  0
    0.7744   -0.3441    0.0000 C   0  0  0  0  0  0  0  0  0  0  0  0
    0.5145    1.1332    0.0000 O   0  0  0  0  0  0  0  0  0  0  0  0
    3.6222   -1.0287    0.0000 C   0  0  0  0  0  0  0  0  0  0  0  0
    4.3952    0.2568    0.0000 C   0  0  0  0  0  0  0  0  0  0  0  0
    5.8949    0.2302    0.0000 C   0  0  0  0  0  0  0  0  0  0  0  0
    6.6218   -1.0819    0.0000 C   0  0  0  0  0  0  0  0  0  0  0  0
    5.8488   -2.3675    0.0000 C   0  0  0  0  0  0  0  0  0  0  0  0
    4.3491   -2.3408    0.0000 C   0  0  0  0  0  0  0  0  0  0  0  0
  1  2  1  0  0  0  0
  2  3  1  0  0  0  0
  4  3  1  0  0  0  0
  3  9  1  0  0  0  0
  3 11  1  0  0  0  0
  5  4  1  0  0  0  0
  5  6  2  0  0  0  0
  7  5  1  0  0  0  0
  7  8  1  0  0  0  0
  9  7  1  0  0  0  0
  9 10  2  0  0  0  0
 12 11  2  0  0  0  0
 11 16  1  0  0  0  0
 13 12  1  0  0  0  0
 14 13  2  0  0  0  0
 15 14  1  0  0  0  0
 16 15  2  0  0  0  0
M  END
> <Inchi_key>
GMHKMTDVRCWUDX-UHFFFAOYSA-N

> <Source>
Mulliner , Kotsampasakou

> <ID>
EK0321;HT1308

> <H_MFHB>
0

> <CAS>


> <Cholestasis>
0

> <Name>
mephenytoin

> <Class>
0

$$$$