
  -INDIGO-08031710012D

 22 22  0  0  0  0  0  0  0  0999 V2000
    9.2275   -2.8183    0.0000 C   0  0  0  0  0  0  0  0  0  0  0  0
    9.2275   -4.3183    0.0000 C   0  0  0  0  0  0  0  0  0  0  0  0
   10.5264   -5.0683    0.0000 C   0  0  0  0  0  0  0  0  0  0  0  0
    7.9283   -5.0683    0.0000 C   0  0  0  0  0  0  0  0  0  0  0  0
    7.9283   -6.5683    0.0000 C   0  0  0  0  0  0  0  0  0  0  0  0
    6.6294   -7.3183    0.0000 C   0  0  0  0  0  0  0  0  0  0  0  0
    5.3302   -6.5683    0.0000 C   0  0  0  0  0  0  0  0  0  0  0  0
    4.0313   -7.3183    0.0000 N   0  0  0  0  0  0  0  0  0  0  0  0
    2.7322   -6.5683    0.0000 C   0  0  0  0  0  0  0  0  0  0  0  0
    2.7322   -5.0683    0.0000 O   0  0  0  0  0  0  0  0  0  0  0  0
    1.4330   -7.3183    0.0000 C   0  0  0  0  0  0  0  0  0  0  0  0
    0.1341   -6.5683    0.0000 N   0  0  0  0  0  0  0  0  0  0  0  0
    0.1341   -5.0683    0.0000 C   0  0  0  0  0  0  0  0  0  0  0  0
   -1.1649   -4.3183    0.0000 C   0  0  0  0  0  0  0  0  0  0  0  0
   -2.4640   -5.0683    0.0000 O   0  0  0  0  0  0  0  0  0  0  0  0
   -1.1649   -2.8183    0.0000 O   0  0  0  0  0  0  0  0  0  0  0  0
   -1.1649   -7.3183    0.0000 C   0  0  0  0  0  0  0  0  0  0  0  0
   -1.1649   -8.8183    0.0000 C   0  0  0  0  0  0  0  0  0  0  0  0
    0.1341   -9.5683    0.0000 O   0  0  0  0  0  0  0  0  0  0  0  0
   -2.4640   -9.5683    0.0000 O   0  0  0  0  0  0  0  0  0  0  0  0
    5.3302   -5.0683    0.0000 C   0  0  0  0  0  0  0  0  0  0  0  0
    6.6294   -4.3183    0.0000 C   0  0  0  0  0  0  0  0  0  0  0  0
  1  2  1  0  0  0  0
  2  3  1  0  0  0  0
  2  4  1  0  0  0  0
  5  4  2  0  0  0  0
  4 22  1  0  0  0  0
  6  5  1  0  0  0  0
  7  6  2  0  0  0  0
  7  8  1  0  0  0  0
 21  7  1  0  0  0  0
  8  9  1  0  0  0  0
  9 10  2  0  0  0  0
  9 11  1  0  0  0  0
 11 12  1  0  0  0  0
 12 13  1  0  0  0  0
 12 17  1  0  0  0  0
 13 14  1  0  0  0  0
 14 15  2  0  0  0  0
 14 16  1  0  0  0  0
 17 18  1  0  0  0  0
 18 19  2  0  0  0  0
 18 20  1  0  0  0  0
 22 21  2  0  0  0  0
M  END
> <Inchi_key>
FPTRWYHXARAFPO-UHFFFAOYSA-N

> <Source>
Mulliner

> <ID>
HT3399

> <H_MFHB>
0

> <CAS>


> <Cholestasis>


> <Name>


> <Class>
0

$$$$