
  -INDIGO-08031710012D

 19 21  0  0  0  0  0  0  0  0999 V2000
   -0.0786    0.2438    0.0000 O   0  0  0  0  0  0  0  0  0  0  0  0
    1.1389    1.1198    0.0000 C   0  0  0  0  0  0  0  0  0  0  0  0
    1.1460    2.6198    0.0000 N   0  0  0  0  0  0  0  0  0  0  0  0
    2.5748    3.0766    0.0000 C   0  0  0  0  0  0  0  0  0  0  0  0
    3.4508    1.8590    0.0000 C   0  0  0  0  0  0  0  0  0  0  0  0
    4.2069    3.1545    0.0000 C   0  0  0  0  0  0  0  0  0  0  0  0
    5.7069    3.1475    0.0000 C   0  0  0  0  0  0  0  0  0  0  0  0
    6.4509    1.8450    0.0000 N   0  0  0  0  0  0  0  0  0  0  0  0
    7.9506    1.8380    0.0000 C   0  0  0  0  0  0  0  0  0  0  0  0
    8.7068    3.1335    0.0000 C   0  0  0  0  0  0  0  0  0  0  0  0
   10.2067    3.1265    0.0000 C   0  0  0  0  0  0  0  0  0  0  0  0
   10.9507    1.8239    0.0000 C   0  0  0  0  0  0  0  0  0  0  0  0
   12.4506    1.8169    0.0000 C   0  0  0  0  0  0  0  0  0  0  0  0
   13.2068    3.1124    0.0000 C   0  0  0  0  0  0  0  0  0  0  0  0
   12.4628    4.4150    0.0000 C   0  0  0  0  0  0  0  0  0  0  0  0
   10.9629    4.4220    0.0000 C   0  0  0  0  0  0  0  0  0  0  0  0
    5.6947    0.5495    0.0000 C   0  0  0  0  0  0  0  0  0  0  0  0
    4.1948    0.5565    0.0000 C   0  0  0  0  0  0  0  0  0  0  0  0
    2.5635    0.6496    0.0000 O   0  0  0  0  0  0  0  0  0  0  0  0
  1  2  2  0  0  0  0
  3  2  1  0  0  0  0
  2 19  1  0  0  0  0
  4  3  1  0  0  0  0
  5  4  1  0  0  0  0
  6  5  1  0  0  0  0
  5 18  1  0  0  0  0
 19  5  1  0  0  0  0
  7  6  1  0  0  0  0
  8  7  1  0  0  0  0
  8  9  1  0  0  0  0
 17  8  1  0  0  0  0
  9 10  1  0  0  0  0
 10 11  1  0  0  0  0
 12 11  2  0  0  0  0
 11 16  1  0  0  0  0
 13 12  1  0  0  0  0
 14 13  2  0  0  0  0
 15 14  1  0  0  0  0
 16 15  2  0  0  0  0
 18 17  1  0  0  0  0
M  END
> <Inchi_key>
FVNFBBAOMBJTST-UHFFFAOYSA-N

> <Source>
Mulliner

> <ID>
HT3147

> <H_MFHB>
0

> <CAS>


> <Cholestasis>


> <Name>


> <Class>
0

$$$$