

  -INDIGO-08031710012D

 26 27  0  0  0  0  0  0  0  0999 V2000
   11.1094   11.1095    0.0000 O   0  0  0  0  0  0  0  0  0  0  0  0
   11.1094    9.6095    0.0000 C   0  0  0  0  0  0  0  0  0  0  0  0
   12.4085    8.8595    0.0000 O   0  0  0  0  0  0  0  0  0  0  0  0
    9.8103    8.8595    0.0000 C   0  0  0  0  0  0  0  0  0  0  0  0
    8.5114    9.6095    0.0000 C   0  0  0  0  0  0  0  0  0  0  0  0
    7.2123    8.8595    0.0000 C   0  0  0  0  0  0  0  0  0  0  0  0
    5.9132    9.6095    0.0000 C   0  0  0  0  0  0  0  0  0  0  0  0
    4.6144    8.8595    0.0000 O   0  0  0  0  0  0  0  0  0  0  0  0
    3.3153    9.6095    0.0000 N   0  0  0  0  0  0  0  0  0  0  0  0
    2.0162    8.8595    0.0000 C   0  0  0  0  0  0  0  0  0  0  0  0
    0.7173    9.6095    0.0000 C   0  0  0  0  0  0  0  0  0  0  0  0
    0.7173   11.1095    0.0000 C   0  0  0  0  0  0  0  0  0  0  0  0
   -0.5818   11.8595    0.0000 C   0  0  0  0  0  0  0  0  0  0  0  0
   -1.8809   11.1095    0.0000 C   0  0  0  0  0  0  0  0  0  0  0  0
   -1.8809    9.6095    0.0000 N   0  0  0  0  0  0  0  0  0  0  0  0
   -0.5818    8.8595    0.0000 C   0  0  0  0  0  0  0  0  0  0  0  0
    2.0162    7.3595    0.0000 C   0  0  0  0  0  0  0  0  0  0  0  0
    3.3153    6.6094    0.0000 C   0  0  0  0  0  0  0  0  0  0  0  0
    3.3153    5.1096    0.0000 C   0  0  0  0  0  0  0  0  0  0  0  0
    2.0162    4.3596    0.0000 C   0  0  0  0  0  0  0  0  0  0  0  0
    0.7173    5.1096    0.0000 C   0  0  0  0  0  0  0  0  0  0  0  0
    0.7173    6.6094    0.0000 C   0  0  0  0  0  0  0  0  0  0  0  0
   -0.5818    4.3596    0.0000 C   0  0  0  0  0  0  0  0  0  0  0  0
   -1.3319    5.6584    0.0000 F   0  0  0  0  0  0  0  0  0  0  0  0
    0.1680    3.0604    0.0000 F   0  0  0  0  0  0  0  0  0  0  0  0
   -1.8809    3.6095    0.0000 F   0  0  0  0  0  0  0  0  0  0  0  0
  1  2  1  0  0  0  0
  2  3  2  0  0  0  0
  2  4  1  0  0  0  0
  4  5  1  0  0  0  0
  5  6  1  0  0  0  0
  6  7  1  0  0  0  0
  7  8  1  0  0  0  0
  8  9  1  0  0  0  0
  9 10  2  0  0  0  0
 10 11  1  0  0  0  0
 10 17  1  0  0  0  0
 12 11  2  0  0  0  0
 11 16  1  0  0  0  0
 13 12  1  0  0  0  0
 14 13  2  0  0  0  0
 15 14  1  0  0  0  0
 16 15  2  0  0  0  0
 18 17  2  0  0  0  0
 17 22  1  0  0  0  0
 19 18  1  0  0  0  0
 20 19  2  0  0  0  0
 21 20  1  0  0  0  0
 22 21  2  0  0  0  0
 21 23  1  0  0  0  0
 23 24  1  0  0  0  0
 23 25  1  0  0  0  0
 23 26  1  0  0  0  0
M  END
> <Inchi_key>
GLLPUTYLZIKEGF-HAVVHWLPSA-N

> <Source>
Mulliner

> <ID>
HT1819

> <H_MFHB>
0

> <CAS>


> <Cholestasis>


> <Name>
ridogrel

> <Class>
0


$$$$