

  -INDIGO-08031710012D

 27 30  0  0  0  0  0  0  0  0999 V2000
    9.2740    4.1290    0.0000 C   0  0  0  0  0  0  0  0  0  0  0  0
    8.2701    3.0142    0.0000 C   0  0  0  0  0  0  0  0  0  0  0  0
    8.7337    1.5878    0.0000 N   0  0  0  0  0  0  0  0  0  0  0  0
    7.8521    0.3742    0.0000 C   0  0  0  0  0  0  0  0  0  0  0  0
    6.3520    0.3742    0.0000 C   0  0  0  0  0  0  0  0  0  0  0  0
    5.6020    1.6732    0.0000 C   0  0  0  0  0  0  0  0  0  0  0  0
    4.1019    1.6732    0.0000 C   0  0  0  0  0  0  0  0  0  0  0  0
    3.3519    0.3742    0.0000 C   0  0  0  0  0  0  0  0  0  0  0  0
    1.8521    0.3742    0.0000 C   0  0  0  0  0  0  0  0  0  0  0  0
    1.1020    1.6732    0.0000 C   0  0  0  0  0  0  0  0  0  0  0  0
    1.7122    3.0435    0.0000 S   0  0  0  0  0  0  0  0  0  0  0  0
    0.5975    4.0472    0.0000 C   0  0  0  0  0  0  0  0  0  0  0  0
    0.5975    5.5473    0.0000 C   0  0  0  0  0  0  0  0  0  0  0  0
   -0.7016    6.2972    0.0000 C   0  0  0  0  0  0  0  0  0  0  0  0
   -2.0008    5.5473    0.0000 C   0  0  0  0  0  0  0  0  0  0  0  0
   -2.0008    4.0472    0.0000 C   0  0  0  0  0  0  0  0  0  0  0  0
   -0.7016    3.2972    0.0000 C   0  0  0  0  0  0  0  0  0  0  0  0
   -0.3899    1.8300    0.0000 N   0  0  0  0  0  0  0  0  0  0  0  0
   -1.3935    0.7153    0.0000 C   0  0  0  0  0  0  0  0  0  0  0  0
   -2.8607    1.0271    0.0000 C   0  0  0  0  0  0  0  0  0  0  0  0
    8.7337   -0.8393    0.0000 S   0  0  0  0  0  0  0  0  0  0  0  0
   10.1603   -0.3759    0.0000 C   0  0  0  0  0  0  0  0  0  0  0  0
   11.4593   -1.1258    0.0000 C   0  0  0  0  0  0  0  0  0  0  0  0
   12.7584   -0.3759    0.0000 C   0  0  0  0  0  0  0  0  0  0  0  0
   12.7584    1.1241    0.0000 C   0  0  0  0  0  0  0  0  0  0  0  0
   11.4593    1.8742    0.0000 C   0  0  0  0  0  0  0  0  0  0  0  0
   10.1603    1.1241    0.0000 C   0  0  0  0  0  0  0  0  0  0  0  0
  1  2  1  0  0  0  0
  2  3  1  0  0  0  0
  4  3  1  0  0  0  0
  3 27  1  0  0  0  0
  4  5  2  0  0  0  0
 21  4  1  0  0  0  0
  5  6  1  0  0  0  0
  6  7  2  0  0  0  0
  7  8  1  0  0  0  0
  8  9  2  0  0  0  0
  9 10  1  0  0  0  0
 11 10  1  0  0  0  0
 10 18  2  0  0  0  0
 12 11  1  0  0  0  0
 13 12  2  0  0  0  0
 12 17  1  0  0  0  0
 14 13  1  0  0  0  0
 15 14  2  0  0  0  0
 16 15  1  0  0  0  0
 17 16  2  0  0  0  0
 18 17  1  0  0  0  0
 18 19  1  0  0  0  0
 19 20  1  0  0  0  0
 22 21  1  0  0  0  0
 23 22  2  0  0  0  0
 22 27  1  0  0  0  0
 24 23  1  0  0  0  0
 25 24  2  0  0  0  0
 26 25  1  0  0  0  0
 27 26  2  0  0  0  0
M  CHG  1  18   1
M  END
> <Inchi_key>
FYXWDSGGZAMYFZ-UHFFFAOYSA-N

> <Source>
Mulliner

> <ID>
HT3744

> <H_MFHB>
0

> <CAS>


> <Cholestasis>


> <Name>


> <Class>
0


$$$$