
  -INDIGO-08031710012D

 11 13  0  0  0  0  0  0  0  0999 V2000
    2.0089   -2.0089    0.0000 S   0  0  0  0  0  0  0  0  0  0  0  0
    2.0089   -0.5089    0.0000 P   0  0  0  0  0  0  0  0  0  0  0  0
    3.5089   -0.5089    0.0000 N   0  0  0  0  0  0  0  0  0  0  0  0
    4.8080    0.2411    0.0000 C   0  0  0  0  0  0  0  0  0  0  0  0
    4.8080   -1.2589    0.0000 C   0  0  0  0  0  0  0  0  0  0  0  0
    0.5089   -0.5089    0.0000 N   0  0  0  0  0  0  0  0  0  0  0  0
   -0.7901   -1.2589    0.0000 C   0  0  0  0  0  0  0  0  0  0  0  0
   -0.7901    0.2411    0.0000 C   0  0  0  0  0  0  0  0  0  0  0  0
    2.0089    0.9911    0.0000 N   0  0  0  0  0  0  0  0  0  0  0  0
    1.2589    2.2901    0.0000 C   0  0  0  0  0  0  0  0  0  0  0  0
    2.7589    2.2901    0.0000 C   0  0  0  0  0  0  0  0  0  0  0  0
  1  2  2  0  0  0  0
  2  3  1  0  0  0  0
  2  6  1  0  0  0  0
  2  9  1  0  0  0  0
  4  3  1  0  0  0  0
  3  5  1  0  0  0  0
  5  4  1  0  0  0  0
  7  6  1  0  0  0  0
  6  8  1  0  0  0  0
  8  7  1  0  0  0  0
 10  9  1  0  0  0  0
  9 11  1  0  0  0  0
 11 10  1  0  0  0  0
M  END
> <Inchi_key>
FOCVUCIESVLUNU-UHFFFAOYSA-N

> <Source>
Mulliner

> <ID>
HT2047

> <H_MFHB>
0

> <CAS>


> <Cholestasis>


> <Name>
thiotepa

> <Class>
0

$$$$