
  -INDIGO-08031710012D

 27 30  0  0  0  0  0  0  0  0999 V2000
   14.5163    2.9547    0.0000 C   0  0  0  0  0  0  0  0  0  0  0  0
   13.1357    2.3683    0.0000 N   0  0  0  0  0  0  0  0  0  0  0  0
   11.9377    3.2707    0.0000 C   0  0  0  0  0  0  0  0  0  0  0  0
   10.5569    2.6845    0.0000 C   0  0  0  0  0  0  0  0  0  0  0  0
   10.3744    1.1956    0.0000 N   0  0  0  0  0  0  0  0  0  0  0  0
   11.5724    0.2931    0.0000 C   0  0  0  0  0  0  0  0  0  0  0  0
   12.9530    0.8794    0.0000 C   0  0  0  0  0  0  0  0  0  0  0  0
    8.9936    0.6094    0.0000 C   0  0  0  0  0  0  0  0  0  0  0  0
    8.8112   -0.8795    0.0000 O   0  0  0  0  0  0  0  0  0  0  0  0
    7.7956    1.5118    0.0000 O   0  0  0  0  0  0  0  0  0  0  0  0
    6.4148    0.9256    0.0000 C   0  0  0  0  0  0  0  0  0  0  0  0
    5.1291    1.6980    0.0000 N   0  0  0  0  0  0  0  0  0  0  0  0
    3.9971    0.7136    0.0000 C   0  0  0  0  0  0  0  0  0  0  0  0
    2.5355    1.0508    0.0000 O   0  0  0  0  0  0  0  0  0  0  0  0
    4.5836   -0.6670    0.0000 C   0  0  0  0  0  0  0  0  0  0  0  0
    3.9498   -2.0267    0.0000 N   0  0  0  0  0  0  0  0  0  0  0  0
    4.8103   -3.2552    0.0000 C   0  0  0  0  0  0  0  0  0  0  0  0
    6.3046   -3.1243    0.0000 C   0  0  0  0  0  0  0  0  0  0  0  0
    6.9382   -1.7646    0.0000 N   0  0  0  0  0  0  0  0  0  0  0  0
    6.0777   -0.5361    0.0000 C   0  0  0  0  0  0  0  0  0  0  0  0
    4.9980    3.1922    0.0000 C   0  0  0  0  0  0  0  0  0  0  0  0
    6.2267    4.0528    0.0000 C   0  0  0  0  0  0  0  0  0  0  0  0
    6.0956    5.5470    0.0000 C   0  0  0  0  0  0  0  0  0  0  0  0
    4.7360    6.1808    0.0000 C   0  0  0  0  0  0  0  0  0  0  0  0
    4.6052    7.6750    0.0000 Cl  0  0  0  0  0  0  0  0  0  0  0  0
    3.5075    5.3202    0.0000 C   0  0  0  0  0  0  0  0  0  0  0  0
    3.6384    3.8260    0.0000 N   0  0  0  0  0  0  0  0  0  0  0  0
  1  2  1  0  0  0  0
  3  2  1  0  0  0  0
  2  7  1  0  0  0  0
  4  3  1  0  0  0  0
  5  4  1  0  0  0  0
  6  5  1  0  0  0  0
  5  8  1  0  0  0  0
  7  6  1  0  0  0  0
  8  9  2  0  0  0  0
  8 10  1  0  0  0  0
 10 11  1  0  0  0  0
 12 11  1  0  0  0  0
 11 20  1  0  0  0  0
 13 12  1  0  0  0  0
 12 21  1  0  0  0  0
 13 14  2  0  0  0  0
 15 13  1  0  0  0  0
 16 15  1  0  0  0  0
 15 20  2  0  0  0  0
 17 16  2  0  0  0  0
 18 17  1  0  0  0  0
 19 18  2  0  0  0  0
 20 19  1  0  0  0  0
 22 21  2  0  0  0  0
 21 27  1  0  0  0  0
 23 22  1  0  0  0  0
 24 23  2  0  0  0  0
 24 25  1  0  0  0  0
 26 24  1  0  0  0  0
 27 26  2  0  0  0  0
M  END
> <Inchi_key>
GBBSUAFBMRNDJC-UHFFFAOYSA-N

> <Source>
Mulliner

> <ID>
HT0800

> <H_MFHB>
0

> <CAS>


> <Cholestasis>


> <Name>
eszopiclone;zopiclone

> <Class>
0

$$$$