
  -INDIGO-08031710012D

 35 36  0  0  0  0  0  0  0  0999 V2000
   -5.6214    8.5108    0.0000 C   0  0  0  0  0  0  0  0  0  0  0  0
   -6.9204    7.7608    0.0000 C   0  0  0  0  0  0  0  0  0  0  0  0
   -7.6705    9.0599    0.0000 C   0  0  0  0  0  0  0  0  0  0  0  0
   -8.2194    7.0108    0.0000 C   0  0  0  0  0  0  0  0  0  0  0  0
   -6.1704    6.4618    0.0000 C   0  0  0  0  0  0  0  0  0  0  0  0
   -4.6705    6.4618    0.0000 C   0  0  0  0  0  0  0  0  0  0  0  0
   -3.9205    5.1627    0.0000 C   0  0  0  0  0  0  0  0  0  0  0  0
   -2.4204    5.1627    0.0000 S   0  0  0  0  0  0  0  0  0  0  0  0
   -1.6704    3.8637    0.0000 C   0  0  0  0  0  0  0  0  0  0  0  0
   -2.9694    3.1137    0.0000 C   0  0  0  0  0  0  0  0  0  0  0  0
   -0.3716    3.1137    0.0000 C   0  0  0  0  0  0  0  0  0  0  0  0
   -0.9206    5.1627    0.0000 S   0  0  0  0  0  0  0  0  0  0  0  0
    0.5795    5.1627    0.0000 C   0  0  0  0  0  0  0  0  0  0  0  0
    1.3295    6.4618    0.0000 C   0  0  0  0  0  0  0  0  0  0  0  0
    2.8296    6.4618    0.0000 C   0  0  0  0  0  0  0  0  0  0  0  0
    3.5794    5.1627    0.0000 C   0  0  0  0  0  0  0  0  0  0  0  0
    5.0795    5.1627    0.0000 O   0  0  0  0  0  0  0  0  0  0  0  0
    2.8296    3.8637    0.0000 C   0  0  0  0  0  0  0  0  0  0  0  0
    1.3295    3.8637    0.0000 C   0  0  0  0  0  0  0  0  0  0  0  0
    3.5794    2.5647    0.0000 C   0  0  0  0  0  0  0  0  0  0  0  0
    2.2804    1.8147    0.0000 C   0  0  0  0  0  0  0  0  0  0  0  0
    4.3295    1.2656    0.0000 C   0  0  0  0  0  0  0  0  0  0  0  0
    4.8784    3.3147    0.0000 C   0  0  0  0  0  0  0  0  0  0  0  0
    3.5794    7.7608    0.0000 C   0  0  0  0  0  0  0  0  0  0  0  0
    4.8784    7.0108    0.0000 C   0  0  0  0  0  0  0  0  0  0  0  0
    4.3295    9.0599    0.0000 C   0  0  0  0  0  0  0  0  0  0  0  0
    2.2804    8.5108    0.0000 C   0  0  0  0  0  0  0  0  0  0  0  0
   -4.6705    3.8637    0.0000 C   0  0  0  0  0  0  0  0  0  0  0  0
   -6.1704    3.8637    0.0000 C   0  0  0  0  0  0  0  0  0  0  0  0
   -6.9204    5.1627    0.0000 C   0  0  0  0  0  0  0  0  0  0  0  0
   -8.4205    5.1627    0.0000 O   0  0  0  0  0  0  0  0  0  0  0  0
   -6.9204    2.5647    0.0000 C   0  0  0  0  0  0  0  0  0  0  0  0
   -5.6214    1.8147    0.0000 C   0  0  0  0  0  0  0  0  0  0  0  0
   -8.2194    3.3147    0.0000 C   0  0  0  0  0  0  0  0  0  0  0  0
   -7.6705    1.2656    0.0000 C   0  0  0  0  0  0  0  0  0  0  0  0
  1  2  1  0  0  0  0
  2  3  1  0  0  0  0
  2  4  1  0  0  0  0
  2  5  1  0  0  0  0
  6  5  2  0  0  0  0
  5 30  1  0  0  0  0
  7  6  1  0  0  0  0
  7  8  1  0  0  0  0
 28  7  2  0  0  0  0
  8  9  1  0  0  0  0
  9 10  1  0  0  0  0
  9 11  1  0  0  0  0
  9 12  1  0  0  0  0
 12 13  1  0  0  0  0
 14 13  2  0  0  0  0
 13 19  1  0  0  0  0
 15 14  1  0  0  0  0
 16 15  2  0  0  0  0
 15 24  1  0  0  0  0
 16 17  1  0  0  0  0
 18 16  1  0  0  0  0
 19 18  2  0  0  0  0
 18 20  1  0  0  0  0
 20 21  1  0  0  0  0
 20 22  1  0  0  0  0
 20 23  1  0  0  0  0
 24 25  1  0  0  0  0
 24 26  1  0  0  0  0
 24 27  1  0  0  0  0
 29 28  1  0  0  0  0
 30 29  2  0  0  0  0
 29 32  1  0  0  0  0
 30 31  1  0  0  0  0
 32 33  1  0  0  0  0
 32 34  1  0  0  0  0
 32 35  1  0  0  0  0
M  END
> <Inchi_key>
FYPMFJGVHOHGLL-UHFFFAOYSA-N

> <Source>
Mulliner , Kotsampasakou

> <ID>
EK0442;HT1742

> <H_MFHB>
0

> <CAS>


> <Cholestasis>
0

> <Name>
probucol

> <Class>
0

$$$$