
  -INDIGO-08031710012D

 34 36  0  0  0  0  0  0  0  0999 V2000
   13.6057    3.6456    0.0000 O   0  0  0  0  0  0  0  0  0  0  0  0
   12.3065    2.8957    0.0000 C   0  0  0  0  0  0  0  0  0  0  0  0
   12.3065    1.3957    0.0000 C   0  0  0  0  0  0  0  0  0  0  0  0
   11.0075    0.6456    0.0000 O   0  0  0  0  0  0  0  0  0  0  0  0
   11.0075   -0.8544    0.0000 C   0  0  0  0  0  0  0  0  0  0  0  0
    9.7085   -1.6043    0.0000 O   0  0  0  0  0  0  0  0  0  0  0  0
    8.4096   -0.8544    0.0000 C   0  0  0  0  0  0  0  0  0  0  0  0
    8.4096    0.6456    0.0000 C   0  0  0  0  0  0  0  0  0  0  0  0
    9.7085    1.3957    0.0000 O   0  0  0  0  0  0  0  0  0  0  0  0
    7.1103    1.3957    0.0000 C   0  0  0  0  0  0  0  0  0  0  0  0
    7.1103    2.8957    0.0000 O   0  0  0  0  0  0  0  0  0  0  0  0
    5.8113    0.6456    0.0000 C   0  0  0  0  0  0  0  0  0  0  0  0
    4.5124    1.3957    0.0000 O   0  0  0  0  0  0  0  0  0  0  0  0
    3.2134    0.6456    0.0000 C   0  0  0  0  0  0  0  0  0  0  0  0
    3.2134   -0.8544    0.0000 C   0  0  0  0  0  0  0  0  0  0  0  0
    4.5124   -1.6043    0.0000 O   0  0  0  0  0  0  0  0  0  0  0  0
    1.9144   -1.6043    0.0000 C   0  0  0  0  0  0  0  0  0  0  0  0
    1.9144   -3.1043    0.0000 O   0  0  0  0  0  0  0  0  0  0  0  0
    0.6152   -0.8544    0.0000 C   0  0  0  0  0  0  0  0  0  0  0  0
   -0.6838   -1.6043    0.0000 O   0  0  0  0  0  0  0  0  0  0  0  0
    0.6152    0.6456    0.0000 O   0  0  0  0  0  0  0  0  0  0  0  0
    1.9144    1.3957    0.0000 C   0  0  0  0  0  0  0  0  0  0  0  0
    1.9144    2.8957    0.0000 C   0  0  0  0  0  0  0  0  0  0  0  0
    0.6152    3.6456    0.0000 O   0  0  0  0  0  0  0  0  0  0  0  0
    5.8113   -0.8544    0.0000 O   0  0  0  0  0  0  0  0  0  0  0  0
    7.1103   -1.6043    0.0000 C   0  0  0  0  0  0  0  0  0  0  0  0
    7.1103   -3.1043    0.0000 C   0  0  0  0  0  0  0  0  0  0  0  0
    5.8113   -3.8544    0.0000 O   0  0  0  0  0  0  0  0  0  0  0  0
   12.3065   -1.6043    0.0000 C   0  0  0  0  0  0  0  0  0  0  0  0
   12.3065   -3.1043    0.0000 O   0  0  0  0  0  0  0  0  0  0  0  0
   13.6057   -0.8544    0.0000 C   0  0  0  0  0  0  0  0  0  0  0  0
   14.9047   -1.6043    0.0000 O   0  0  0  0  0  0  0  0  0  0  0  0
   13.6057    0.6456    0.0000 C   0  0  0  0  0  0  0  0  0  0  0  0
   14.9047    1.3957    0.0000 O   0  0  0  0  0  0  0  0  0  0  0  0
  1  2  1  0  0  0  0
  2  3  1  0  0  0  0
  4  3  1  0  0  0  0
  3 33  1  0  0  0  0
  5  4  1  0  0  0  0
  5  6  1  0  0  0  0
 29  5  1  0  0  0  0
  6  7  1  0  0  0  0
  8  7  1  0  0  0  0
  7 26  1  0  0  0  0
  8  9  1  0  0  0  0
 10  8  1  0  0  0  0
 10 11  1  0  0  0  0
 12 10  1  0  0  0  0
 12 13  1  0  0  0  0
 25 12  1  0  0  0  0
 13 14  1  0  0  0  0
 15 14  1  0  0  0  0
 14 22  1  0  0  0  0
 15 16  1  0  0  0  0
 17 15  1  0  0  0  0
 17 18  1  0  0  0  0
 19 17  1  0  0  0  0
 19 20  1  0  0  0  0
 21 19  1  0  0  0  0
 22 21  1  0  0  0  0
 22 23  1  0  0  0  0
 23 24  1  0  0  0  0
 26 25  1  0  0  0  0
 26 27  1  0  0  0  0
 27 28  1  0  0  0  0
 29 30  1  0  0  0  0
 31 29  1  0  0  0  0
 31 32  1  0  0  0  0
 33 31  1  0  0  0  0
 33 34  1  0  0  0  0
M  END
> <Inchi_key>
FYGDTMLNYKFZSV-UHFFFAOYSA-N

> <Source>
Mulliner

> <ID>
HT3889

> <H_MFHB>
0

> <CAS>


> <Cholestasis>


> <Name>


> <Class>
0

$$$$