

  -INDIGO-08031710012D

 35 38  0  0  0  0  0  0  0  0999 V2000
   -0.2726    0.6728    0.0000 C   0  0  0  0  0  0  0  0  0  0  0  0
    1.2215    0.5380    0.0000 C   0  0  0  0  0  0  0  0  0  0  0  0
    2.0850    1.7643    0.0000 C   0  0  0  0  0  0  0  0  0  0  0  0
    3.5791    1.6297    0.0000 C   0  0  0  0  0  0  0  0  0  0  0  0
    4.2094    0.2685    0.0000 O   0  0  0  0  0  0  0  0  0  0  0  0
    4.4426    2.8560    0.0000 O   0  0  0  0  0  0  0  0  0  0  0  0
    5.9367    2.7214    0.0000 C   0  0  0  0  0  0  0  0  0  0  0  0
    5.8801    1.2224    0.0000 C   0  0  0  0  0  0  0  0  0  0  0  0
    7.2883    0.7056    0.0000 C   0  0  0  0  0  0  0  0  0  0  0  0
    8.2151    1.8852    0.0000 C   0  0  0  0  0  0  0  0  0  0  0  0
    9.7117    1.9858    0.0000 C   0  0  0  0  0  0  0  0  0  0  0  0
   10.5470    0.7399    0.0000 C   0  0  0  0  0  0  0  0  0  0  0  0
   12.0439    0.8406    0.0000 C   0  0  0  0  0  0  0  0  0  0  0  0
   12.7049    2.1871    0.0000 C   0  0  0  0  0  0  0  0  0  0  0  0
   14.2015    2.2877    0.0000 C   0  0  0  0  0  0  0  0  0  0  0  0
   14.8627    3.6341    0.0000 C   0  0  0  0  0  0  0  0  0  0  0  0
   16.3593    3.7347    0.0000 O   0  0  0  0  0  0  0  0  0  0  0  0
   14.0271    4.8799    0.0000 C   0  0  0  0  0  0  0  0  0  0  0  0
   12.5305    4.7793    0.0000 C   0  0  0  0  0  0  0  0  0  0  0  0
   11.8695    3.4328    0.0000 C   0  0  0  0  0  0  0  0  0  0  0  0
   11.0339    4.6786    0.0000 C   0  0  0  0  0  0  0  0  0  0  0  0
   10.3729    3.3322    0.0000 C   0  0  0  0  0  0  0  0  0  0  0  0
    9.5373    4.5779    0.0000 C   0  0  0  0  0  0  0  0  0  0  0  0
   10.1985    5.9244    0.0000 O   0  0  0  0  0  0  0  0  0  0  0  0
    8.0407    4.4774    0.0000 C   0  0  0  0  0  0  0  0  0  0  0  0
    7.3795    3.1311    0.0000 C   0  0  0  0  0  0  0  0  0  0  0  0
    6.4388    4.2992    0.0000 C   0  0  0  0  0  0  0  0  0  0  0  0
    5.3541    4.1037    0.0000 C   0  0  0  0  0  0  0  0  0  0  0  0
    6.2601    5.2992    0.0000 O   0  0  0  0  0  0  0  0  0  0  0  0
    3.8659    4.2905    0.0000 C   0  0  0  0  0  0  0  0  0  0  0  0
    3.2834    5.6728    0.0000 O   0  0  0  0  0  0  0  0  0  0  0  0
    1.7952    5.8597    0.0000 C   0  0  0  0  0  0  0  0  0  0  0  0
    0.8892    4.6640    0.0000 O   0  0  0  0  0  0  0  0  0  0  0  0
    1.2126    7.2419    0.0000 C   0  0  0  0  0  0  0  0  0  0  0  0
   -0.2756    7.4287    0.0000 C   0  0  0  0  0  0  0  0  0  0  0  0
  1  2  1  0  0  0  0
  2  3  1  0  0  0  0
  3  4  1  0  0  0  0
  4  5  2  0  0  0  0
  4  6  1  0  0  0  0
  6  7  1  0  0  0  0
  8  7  1  0  0  0  0
  7 26  1  0  0  0  0
  7 28  1  0  0  0  0
  9  8  1  0  0  0  0
 10  9  1  0  0  0  0
 11 10  1  0  0  0  0
 10 26  1  0  0  0  0
 12 11  1  0  0  0  0
 11 22  1  0  0  0  0
 13 12  1  0  0  0  0
 14 13  1  0  0  0  0
 15 14  2  0  0  0  0
 14 20  1  0  0  0  0
 16 15  1  0  0  0  0
 16 17  2  0  0  0  0
 18 16  1  0  0  0  0
 19 18  1  0  0  0  0
 20 19  1  0  0  0  0
 20 21  1  0  0  0  0
 22 20  1  0  0  0  0
 23 22  1  0  0  0  0
 23 24  1  0  0  0  0
 25 23  1  0  0  0  0
 26 25  1  0  0  0  0
 26 27  1  0  0  0  0
 28 29  2  0  0  0  0
 28 30  1  0  0  0  0
 30 31  1  0  0  0  0
 31 32  1  0  0  0  0
 32 33  2  0  0  0  0
 32 34  1  0  0  0  0
 34 35  1  0  0  0  0
M  END
> <Inchi_key>
FOGXJPFPZOHSQS-UHFFFAOYSA-N

> <Source>
Mulliner

> <ID>
HT1051

> <H_MFHB>
0

> <CAS>
72590-77-3

> <Cholestasis>


> <Name>
hydrocortisone probutate

> <Class>
0


$$$$