
  -INDIGO-08031710012D

 14 15  0  0  0  0  0  0  0  0999 V2000
    0.4527   -2.1103    0.0000 C   0  0  0  0  0  0  0  0  0  0  0  0
    1.7517   -1.3603    0.0000 C   0  0  0  0  0  0  0  0  0  0  0  0
    1.7517    0.1397    0.0000 N   0  0  0  0  0  0  0  0  0  0  0  0
    3.0508    0.8897    0.0000 S   0  0  0  0  0  0  0  0  0  0  0  0
    3.8008    2.1887    0.0000 O   0  0  0  0  0  0  0  0  0  0  0  0
    2.3008    2.1887    0.0000 O   0  0  0  0  0  0  0  0  0  0  0  0
    4.3499    0.1397    0.0000 C   0  0  0  0  0  0  0  0  0  0  0  0
    5.6488    0.8897    0.0000 C   0  0  0  0  0  0  0  0  0  0  0  0
    6.9479    0.1397    0.0000 C   0  0  0  0  0  0  0  0  0  0  0  0
    8.2469    0.8897    0.0000 Cl  0  0  0  0  0  0  0  0  0  0  0  0
    6.9479   -1.3603    0.0000 C   0  0  0  0  0  0  0  0  0  0  0  0
    5.6488   -2.1103    0.0000 C   0  0  0  0  0  0  0  0  0  0  0  0
    4.3499   -1.3603    0.0000 C   0  0  0  0  0  0  0  0  0  0  0  0
    3.0508   -2.1103    0.0000 N   0  0  0  0  0  0  0  0  0  0  0  0
  1  2  1  0  0  0  0
  3  2  2  0  0  0  0
  2 14  1  0  0  0  0
  4  3  1  0  0  0  0
  4  5  2  0  0  0  0
  4  6  2  0  0  0  0
  7  4  1  0  0  0  0
  8  7  1  0  0  0  0
  7 13  2  0  0  0  0
  9  8  2  0  0  0  0
  9 10  1  0  0  0  0
 11  9  1  0  0  0  0
 12 11  2  0  0  0  0
 13 12  1  0  0  0  0
 14 13  1  0  0  0  0
M  END
> <Inchi_key>
GDLBFKVLRPITMI-UHFFFAOYSA-N

> <Source>
Mulliner

> <ID>
HT0638

> <H_MFHB>
0

> <CAS>


> <Cholestasis>


> <Name>
diazoxide

> <Class>
0

$$$$