

  -INDIGO-08031710012D

 14 14  0  0  0  0  0  0  0  0999 V2000
    0.0000    3.2696    0.0000 C   0  0  0  0  0  0  0  0  0  0  0  0
    1.5000    3.2696    0.0000 C   0  0  0  0  0  0  0  0  0  0  0  0
    2.2500    1.9706    0.0000 C   0  0  0  0  0  0  0  0  0  0  0  0
    0.7500    1.9706    0.0000 C   0  0  0  0  0  0  0  0  0  0  0  0
    0.0000    0.6716    0.0000 C   0  0  0  0  0  0  0  0  0  0  0  0
    2.2500    0.4706    0.0000 C   0  0  0  0  0  0  0  0  0  0  0  0
    0.9510   -0.2794    0.0000 O   0  0  0  0  0  0  0  0  0  0  0  0
    3.5490   -0.2794    0.0000 N   0  0  0  0  0  0  0  0  0  0  0  0
    4.8481    0.4706    0.0000 C   0  0  0  0  0  0  0  0  0  0  0  0
    6.1471   -0.2794    0.0000 O   0  0  0  0  0  0  0  0  0  0  0  0
    4.8481    1.9706    0.0000 N   0  0  0  0  0  0  0  0  0  0  0  0
    6.1471    2.7206    0.0000 C   0  0  0  0  0  0  0  0  0  0  0  0
    3.5490    2.7206    0.0000 C   0  0  0  0  0  0  0  0  0  0  0  0
    3.5490    4.2206    0.0000 O   0  0  0  0  0  0  0  0  0  0  0  0
  1  2  1  0  0  0  0
  2  3  1  0  0  0  0
  3  4  1  0  0  0  0
  6  3  1  0  0  0  0
  3 13  1  0  0  0  0
  4  5  1  0  0  0  0
  6  7  2  0  0  0  0
  8  6  1  0  0  0  0
  9  8  1  0  0  0  0
  9 10  2  0  0  0  0
 11  9  1  0  0  0  0
 11 12  1  0  0  0  0
 13 11  1  0  0  0  0
 13 14  2  0  0  0  0
M  END
> <Inchi_key>
FWJKNZONDWOGMI-UHFFFAOYSA-N

> <Source>
Mulliner

> <ID>
HT1337

> <H_MFHB>
0

> <CAS>


> <Cholestasis>


> <Name>
metharbital

> <Class>
0


$$$$