
  -INDIGO-08031710012D

 28 31  0  0  0  0  0  0  0  0999 V2000
    0.0846   -2.6325    0.0000 C   0  0  0  0  0  0  0  0  0  0  0  0
    0.9408   -1.4009    0.0000 C   0  0  0  0  0  0  0  0  0  0  0  0
    1.6951   -2.6975    0.0000 C   0  0  0  0  0  0  0  0  0  0  0  0
    3.1950   -2.6926    0.0000 C   0  0  0  0  0  0  0  0  0  0  0  0
    3.9492   -3.9892    0.0000 O   0  0  0  0  0  0  0  0  0  0  0  0
    3.9409   -1.3912    0.0000 C   0  0  0  0  0  0  0  0  0  0  0  0
    2.4408   -1.3960    0.0000 F   0  0  0  0  0  0  0  0  0  0  0  0
    3.1867   -0.0946    0.0000 C   0  0  0  0  0  0  0  0  0  0  0  0
    3.9324    1.2069    0.0000 C   0  0  0  0  0  0  0  0  0  0  0  0
    5.4323    1.2118    0.0000 C   0  0  0  0  0  0  0  0  0  0  0  0
    6.1865   -0.0848    0.0000 C   0  0  0  0  0  0  0  0  0  0  0  0
    7.6864   -0.0799    0.0000 C   0  0  0  0  0  0  0  0  0  0  0  0
    8.4409   -1.3765    0.0000 C   0  0  0  0  0  0  0  0  0  0  0  0
    9.9408   -1.3716    0.0000 O   0  0  0  0  0  0  0  0  0  0  0  0
    7.6950   -2.6780    0.0000 C   0  0  0  0  0  0  0  0  0  0  0  0
    6.1950   -2.6828    0.0000 C   0  0  0  0  0  0  0  0  0  0  0  0
    5.4408   -1.3863    0.0000 C   0  0  0  0  0  0  0  0  0  0  0  0
    4.6949   -2.6877    0.0000 C   0  0  0  0  0  0  0  0  0  0  0  0
    1.6865   -0.0995    0.0000 C   0  0  0  0  0  0  0  0  0  0  0  0
    0.6792    1.0120    0.0000 C   0  0  0  0  0  0  0  0  0  0  0  0
   -0.6890    0.3974    0.0000 C   0  0  0  0  0  0  0  0  0  0  0  0
   -1.9906    1.1432    0.0000 O   0  0  0  0  0  0  0  0  0  0  0  0
   -0.5273   -1.0939    0.0000 C   0  0  0  0  0  0  0  0  0  0  0  0
   -1.0112   -2.5137    0.0000 O   0  0  0  0  0  0  0  0  0  0  0  0
   -2.0083   -1.3333    0.0000 C   0  0  0  0  0  0  0  0  0  0  0  0
   -2.9560   -0.1707    0.0000 O   0  0  0  0  0  0  0  0  0  0  0  0
   -2.5412   -2.7355    0.0000 C   0  0  0  0  0  0  0  0  0  0  0  0
   -4.0219   -2.9749    0.0000 O   0  0  0  0  0  0  0  0  0  0  0  0
  1  2  1  0  0  0  0
  3  2  1  0  0  0  0
 19  2  1  0  0  0  0
  2 23  1  0  0  0  0
  4  3  1  0  0  0  0
  4  5  1  0  0  0  0
  6  4  1  0  0  0  0
  6  7  1  0  0  0  0
  6  8  1  0  0  0  0
 17  6  1  0  0  0  0
  8  9  1  0  0  0  0
 19  8  1  0  0  0  0
  9 10  1  0  0  0  0
 10 11  1  0  0  0  0
 12 11  2  0  0  0  0
 11 17  1  0  0  0  0
 13 12  1  0  0  0  0
 13 14  2  0  0  0  0
 15 13  1  0  0  0  0
 16 15  2  0  0  0  0
 17 16  1  0  0  0  0
 17 18  1  0  0  0  0
 20 19  1  0  0  0  0
 21 20  1  0  0  0  0
 21 22  1  0  0  0  0
 23 21  1  0  0  0  0
 23 24  1  0  0  0  0
 23 25  1  0  0  0  0
 25 26  2  0  0  0  0
 25 27  1  0  0  0  0
 27 28  1  0  0  0  0
M  END
> <Inchi_key>
GFNANZIMVAIWHM-UHFFFAOYSA-N

> <Source>
Mulliner , Kotsampasakou

> <ID>
EK0546;HT2105

> <H_MFHB>
0

> <CAS>


> <Cholestasis>
0

> <Name>
triamcinolone

> <Class>
0

$$$$