
  -INDIGO-08031710012D

 21 24  0  0  0  0  0  0  0  0999 V2000
   10.8861   -0.1865    0.0000 O   0  0  0  0  0  0  0  0  0  0  0  0
    9.3910   -0.3078    0.0000 C   0  0  0  0  0  0  0  0  0  0  0  0
    8.8521   -1.7077    0.0000 C   0  0  0  0  0  0  0  0  0  0  0  0
    7.4218   -2.1596    0.0000 N   0  0  0  0  0  0  0  0  0  0  0  0
    6.1762   -1.3240    0.0000 C   0  0  0  0  0  0  0  0  0  0  0  0
    4.8823   -2.0829    0.0000 C   0  0  0  0  0  0  0  0  0  0  0  0
    3.5782   -1.3418    0.0000 C   0  0  0  0  0  0  0  0  0  0  0  0
    2.2843   -2.1006    0.0000 C   0  0  0  0  0  0  0  0  0  0  0  0
    2.2945   -3.6006    0.0000 C   0  0  0  0  0  0  0  0  0  0  0  0
    3.5986   -4.3417    0.0000 C   0  0  0  0  0  0  0  0  0  0  0  0
    4.8925   -3.5828    0.0000 C   0  0  0  0  0  0  0  0  0  0  0  0
    6.0549    0.1712    0.0000 C   0  0  0  0  0  0  0  0  0  0  0  0
    4.7397    0.8927    0.0000 C   0  0  0  0  0  0  0  0  0  0  0  0
    3.3236    0.3984    0.0000 C   0  0  0  0  0  0  0  0  0  0  0  0
    2.1874    1.3777    0.0000 C   0  0  0  0  0  0  0  0  0  0  0  0
    2.4673    2.8514    0.0000 C   0  0  0  0  0  0  0  0  0  0  0  0
    3.8837    3.3457    0.0000 C   0  0  0  0  0  0  0  0  0  0  0  0
    5.0198    2.3663    0.0000 C   0  0  0  0  0  0  0  0  0  0  0  0
    6.5089    2.5564    0.0000 S   0  0  0  0  0  0  0  0  0  0  0  0
    7.1485    1.1997    0.0000 C   0  0  0  0  0  0  0  0  0  0  0  0
    8.6333    0.9868    0.0000 N   0  0  0  0  0  0  0  0  0  0  0  0
  1  2  2  0  0  0  0
  3  2  1  0  0  0  0
  2 21  1  0  0  0  0
  4  3  1  0  0  0  0
  5  4  2  0  0  0  0
  5  6  1  0  0  0  0
 12  5  1  0  0  0  0
  7  6  2  0  0  0  0
  6 11  1  0  0  0  0
  8  7  1  0  0  0  0
  9  8  2  0  0  0  0
 10  9  1  0  0  0  0
 11 10  2  0  0  0  0
 13 12  1  0  0  0  0
 12 20  2  0  0  0  0
 14 13  1  0  0  0  0
 13 18  2  0  0  0  0
 15 14  1  0  0  0  0
 16 15  1  0  0  0  0
 17 16  1  0  0  0  0
 18 17  1  0  0  0  0
 19 18  1  0  0  0  0
 20 19  1  0  0  0  0
 21 20  1  0  0  0  0
M  END
> <Inchi_key>
AIZFEOPQVZBNGH-UHFFFAOYSA-N

> <Source>
Mulliner

> <ID>
HT0240

> <H_MFHB>
0

> <CAS>


> <Cholestasis>


> <Name>
bentazepam

> <Class>
0

$$$$