

  -INDIGO-08031710012D

 30 33  0  0  0  0  0  0  0  0999 V2000
    0.0000    0.0000    0.0000 C   0  0  0  0  0  0  0  0  0  0  0  0
    1.5001    0.0000    0.0000 N   0  0  0  0  0  0  0  0  0  0  0  0
    2.2501   -1.2990    0.0000 C   0  0  0  0  0  0  0  0  0  0  0  0
    2.2501    1.2990    0.0000 S   0  0  0  0  0  0  0  0  0  0  0  0
    3.5489    0.5491    0.0000 O   0  0  0  0  0  0  0  0  0  0  0  0
    0.9511    2.0490    0.0000 O   0  0  0  0  0  0  0  0  0  0  0  0
    2.9999    2.5982    0.0000 C   0  0  0  0  0  0  0  0  0  0  0  0
    2.2501    3.8970    0.0000 C   0  0  0  0  0  0  0  0  0  0  0  0
    2.9999    5.1962    0.0000 C   0  0  0  0  0  0  0  0  0  0  0  0
    4.5000    5.1962    0.0000 C   0  0  0  0  0  0  0  0  0  0  0  0
    5.2500    6.4952    0.0000 S   0  0  0  0  0  0  0  0  0  0  0  0
    6.7501    6.4952    0.0000 C   0  0  0  0  0  0  0  0  0  0  0  0
    7.4999    7.7942    0.0000 C   0  0  0  0  0  0  0  0  0  0  0  0
    9.0000    7.7942    0.0000 C   0  0  0  0  0  0  0  0  0  0  0  0
    9.7500    6.4952    0.0000 C   0  0  0  0  0  0  0  0  0  0  0  0
    9.0000    5.1962    0.0000 C   0  0  0  0  0  0  0  0  0  0  0  0
    7.4999    5.1962    0.0000 C   0  0  0  0  0  0  0  0  0  0  0  0
    6.7501    3.8970    0.0000 C   0  0  0  0  0  0  0  0  0  0  0  0
    7.4999    2.5982    0.0000 C   0  0  0  0  0  0  0  0  0  0  0  0
    6.7501    1.2990    0.0000 C   0  0  0  0  0  0  0  0  0  0  0  0
    7.4999    0.0000    0.0000 C   0  0  0  0  0  0  0  0  0  0  0  0
    9.0000    0.0000    0.0000 N   0  0  0  0  0  0  0  0  0  0  0  0
    9.7500    1.2990    0.0000 C   0  0  0  0  0  0  0  0  0  0  0  0
   11.2501    1.2990    0.0000 C   0  0  0  0  0  0  0  0  0  0  0  0
   11.9999    0.0000    0.0000 N   0  0  0  0  0  0  0  0  0  0  0  0
   13.5000    0.0000    0.0000 C   0  0  0  0  0  0  0  0  0  0  0  0
   11.2501   -1.2990    0.0000 C   0  0  0  0  0  0  0  0  0  0  0  0
    9.7500   -1.2990    0.0000 C   0  0  0  0  0  0  0  0  0  0  0  0
    5.2500    3.8970    0.0000 C   0  0  0  0  0  0  0  0  0  0  0  0
    4.5000    2.5982    0.0000 C   0  0  0  0  0  0  0  0  0  0  0  0
  1  2  1  0  0  0  0
  2  3  1  0  0  0  0
  2  4  1  0  0  0  0
  4  5  2  0  0  0  0
  4  6  2  0  0  0  0
  4  7  1  0  0  0  0
  8  7  2  0  0  0  0
  7 30  1  0  0  0  0
  9  8  1  0  0  0  0
 10  9  2  0  0  0  0
 11 10  1  0  0  0  0
 10 29  1  0  0  0  0
 12 11  1  0  0  0  0
 13 12  2  0  0  0  0
 12 17  1  0  0  0  0
 14 13  1  0  0  0  0
 15 14  2  0  0  0  0
 16 15  1  0  0  0  0
 17 16  2  0  0  0  0
 18 17  1  0  0  0  0
 18 19  2  0  0  0  0
 29 18  1  0  0  0  0
 19 20  1  0  0  0  0
 20 21  1  0  0  0  0
 21 22  1  0  0  0  0
 23 22  1  0  0  0  0
 22 28  1  0  0  0  0
 24 23  1  0  0  0  0
 25 24  1  0  0  0  0
 25 26  1  0  0  0  0
 27 25  1  0  0  0  0
 28 27  1  0  0  0  0
 30 29  2  0  0  0  0
M  END
> <Inchi_key>
GFBKORZTTCHDGY-UWVJOHFNSA-N

> <Source>
Mulliner , Kotsampasakou

> <ID>
EK0525;HT2048

> <H_MFHB>
0

> <CAS>
5591-45-7

> <Cholestasis>
0

> <Name>
thiothixene

> <Class>
0


$$$$