
  -INDIGO-08031710012D

 22 24  0  0  0  0  0  0  0  0999 V2000
    4.9028    4.9029    0.0000 C   0  0  0  0  0  0  0  0  0  0  0  0
    4.9028    3.4029    0.0000 N   0  0  0  0  0  0  0  0  0  0  0  0
    3.6037    2.6529    0.0000 C   0  0  0  0  0  0  0  0  0  0  0  0
    3.6037    1.1529    0.0000 S   0  0  0  0  0  0  0  0  0  0  0  0
    2.3049    3.4029    0.0000 O   0  0  0  0  0  0  0  0  0  0  0  0
    1.0058    2.6529    0.0000 C   0  0  0  0  0  0  0  0  0  0  0  0
    1.0058    1.1529    0.0000 C   0  0  0  0  0  0  0  0  0  0  0  0
   -0.2933    0.4029    0.0000 C   0  0  0  0  0  0  0  0  0  0  0  0
   -1.5922    1.1529    0.0000 C   0  0  0  0  0  0  0  0  0  0  0  0
   -2.8913    0.4029    0.0000 C   0  0  0  0  0  0  0  0  0  0  0  0
   -4.1904    1.1529    0.0000 C   0  0  0  0  0  0  0  0  0  0  0  0
   -4.1904    2.6529    0.0000 C   0  0  0  0  0  0  0  0  0  0  0  0
   -2.8913    3.4029    0.0000 C   0  0  0  0  0  0  0  0  0  0  0  0
   -1.5922    2.6529    0.0000 C   0  0  0  0  0  0  0  0  0  0  0  0
   -0.2933    3.4029    0.0000 C   0  0  0  0  0  0  0  0  0  0  0  0
    6.2019    2.6529    0.0000 C   0  0  0  0  0  0  0  0  0  0  0  0
    6.2019    1.1529    0.0000 C   0  0  0  0  0  0  0  0  0  0  0  0
    7.5010    0.4029    0.0000 C   0  0  0  0  0  0  0  0  0  0  0  0
    8.7999    1.1529    0.0000 C   0  0  0  0  0  0  0  0  0  0  0  0
    8.7999    2.6529    0.0000 C   0  0  0  0  0  0  0  0  0  0  0  0
   10.0990    3.4029    0.0000 C   0  0  0  0  0  0  0  0  0  0  0  0
    7.5010    3.4029    0.0000 C   0  0  0  0  0  0  0  0  0  0  0  0
  1  2  1  0  0  0  0
  2  3  1  0  0  0  0
  2 16  1  0  0  0  0
  3  4  2  0  0  0  0
  3  5  1  0  0  0  0
  5  6  1  0  0  0  0
  7  6  2  0  0  0  0
  6 15  1  0  0  0  0
  8  7  1  0  0  0  0
  9  8  2  0  0  0  0
 10  9  1  0  0  0  0
  9 14  1  0  0  0  0
 11 10  2  0  0  0  0
 12 11  1  0  0  0  0
 13 12  2  0  0  0  0
 14 13  1  0  0  0  0
 15 14  2  0  0  0  0
 17 16  2  0  0  0  0
 16 22  1  0  0  0  0
 18 17  1  0  0  0  0
 19 18  2  0  0  0  0
 20 19  1  0  0  0  0
 20 21  1  0  0  0  0
 22 20  2  0  0  0  0
M  END
> <Inchi_key>
FUSNMLFNXJSCDI-UHFFFAOYSA-N

> <Source>
Mulliner

> <ID>
HT2085

> <H_MFHB>
0

> <CAS>


> <Cholestasis>


> <Name>
tolnaftate

> <Class>
0

$$$$