
  -INDIGO-08031710012D

 18 19  0  0  0  0  0  0  0  0999 V2000
    1.4330   -0.5670    0.0000 C   0  0  0  0  0  0  0  0  0  0  0  0
    1.4330    0.9330    0.0000 C   0  0  0  0  0  0  0  0  0  0  0  0
    2.7321    1.6830    0.0000 C   0  0  0  0  0  0  0  0  0  0  0  0
    4.0312    0.9330    0.0000 N   0  0  0  0  0  0  0  0  0  0  0  0
    5.3301    1.6830    0.0000 C   0  0  0  0  0  0  0  0  0  0  0  0
    6.6292    0.9330    0.0000 C   0  0  0  0  0  0  0  0  0  0  0  0
    6.6292   -0.5670    0.0000 C   0  0  0  0  0  0  0  0  0  0  0  0
    5.3301   -1.3170    0.0000 C   0  0  0  0  0  0  0  0  0  0  0  0
    4.0312   -0.5670    0.0000 C   0  0  0  0  0  0  0  0  0  0  0  0
    0.1340    1.6830    0.0000 C   0  0  0  0  0  0  0  0  0  0  0  0
    0.1340    3.1830    0.0000 O   0  0  0  0  0  0  0  0  0  0  0  0
   -1.1651    0.9330    0.0000 C   0  0  0  0  0  0  0  0  0  0  0  0
   -2.4642    1.6830    0.0000 C   0  0  0  0  0  0  0  0  0  0  0  0
   -3.7631    0.9330    0.0000 C   0  0  0  0  0  0  0  0  0  0  0  0
   -3.7631   -0.5670    0.0000 C   0  0  0  0  0  0  0  0  0  0  0  0
   -5.0622   -1.3170    0.0000 C   0  0  0  0  0  0  0  0  0  0  0  0
   -2.4642   -1.3170    0.0000 C   0  0  0  0  0  0  0  0  0  0  0  0
   -1.1651   -0.5670    0.0000 C   0  0  0  0  0  0  0  0  0  0  0  0
  1  2  1  0  0  0  0
  2  3  1  0  0  0  0
  2 10  1  0  0  0  0
  3  4  1  0  0  0  0
  5  4  1  0  0  0  0
  4  9  1  0  0  0  0
  6  5  1  0  0  0  0
  7  6  1  0  0  0  0
  8  7  1  0  0  0  0
  9  8  1  0  0  0  0
 10 11  2  0  0  0  0
 10 12  1  0  0  0  0
 13 12  2  0  0  0  0
 12 18  1  0  0  0  0
 14 13  1  0  0  0  0
 15 14  2  0  0  0  0
 15 16  1  0  0  0  0
 17 15  1  0  0  0  0
 18 17  2  0  0  0  0
M  END
> <Inchi_key>
FSKFPVLPFLJRQB-UHFFFAOYSA-N

> <Source>
Mulliner

> <ID>
HT2086

> <H_MFHB>
0

> <CAS>
3644-61-9

> <Cholestasis>


> <Name>
tolperisone

> <Class>
0

$$$$