
  -INDIGO-08031710012D

 23 26  0  0  0  0  0  0  0  0999 V2000
   12.2641   -1.4124    0.0000 C   0  0  0  0  0  0  0  0  0  0  0  0
   10.9583   -2.1503    0.0000 N   0  0  0  0  0  0  0  0  0  0  0  0
    9.6571   -2.3407    0.0000 C   0  0  0  0  0  0  0  0  0  0  0  0
    9.5224   -3.7731    0.0000 C   0  0  0  0  0  0  0  0  0  0  0  0
   10.1674   -4.9408    0.0000 C   0  0  0  0  0  0  0  0  0  0  0  0
    9.9947   -3.3243    0.0000 C   0  0  0  0  0  0  0  0  0  0  0  0
    8.4397   -2.4309    0.0000 C   0  0  0  0  0  0  0  0  0  0  0  0
    7.2168   -2.6427    0.0000 C   0  0  0  0  0  0  0  0  0  0  0  0
    8.1903   -1.4672    0.0000 C   0  0  0  0  0  0  0  0  0  0  0  0
    5.9195   -3.3955    0.0000 O   0  0  0  0  0  0  0  0  0  0  0  0
    4.6188   -2.6483    0.0000 C   0  0  0  0  0  0  0  0  0  0  0  0
    4.6154   -1.1482    0.0000 C   0  0  0  0  0  0  0  0  0  0  0  0
    5.9130   -0.3955    0.0000 C   0  0  0  0  0  0  0  0  0  0  0  0
    5.9098    1.1045    0.0000 C   0  0  0  0  0  0  0  0  0  0  0  0
    4.6091    1.8517    0.0000 C   0  0  0  0  0  0  0  0  0  0  0  0
    3.3116    1.0989    0.0000 C   0  0  0  0  0  0  0  0  0  0  0  0
    3.3147   -0.4011    0.0000 C   0  0  0  0  0  0  0  0  0  0  0  0
    3.3212   -3.4011    0.0000 C   0  0  0  0  0  0  0  0  0  0  0  0
    3.3244   -4.9011    0.0000 C   0  0  0  0  0  0  0  0  0  0  0  0
    2.0271   -5.6539    0.0000 C   0  0  0  0  0  0  0  0  0  0  0  0
    0.7265   -4.9067    0.0000 C   0  0  0  0  0  0  0  0  0  0  0  0
    0.7232   -3.4067    0.0000 C   0  0  0  0  0  0  0  0  0  0  0  0
    2.0205   -2.6540    0.0000 C   0  0  0  0  0  0  0  0  0  0  0  0
  1  2  1  0  0  0  0
  3  2  1  0  0  0  0
  2  6  1  0  0  0  0
  3  4  1  0  0  0  0
  9  3  1  0  0  0  0
  4  5  1  0  0  0  0
  5  6  1  0  0  0  0
  6  7  1  0  0  0  0
  7  8  1  0  0  0  0
  8  9  1  0  0  0  0
  8 10  1  0  0  0  0
 10 11  1  0  0  0  0
 11 12  1  0  0  0  0
 11 18  1  0  0  0  0
 13 12  2  0  0  0  0
 12 17  1  0  0  0  0
 14 13  1  0  0  0  0
 15 14  2  0  0  0  0
 16 15  1  0  0  0  0
 17 16  2  0  0  0  0
 19 18  2  0  0  0  0
 18 23  1  0  0  0  0
 20 19  1  0  0  0  0
 21 20  2  0  0  0  0
 22 21  1  0  0  0  0
 23 22  2  0  0  0  0
M  END
> <Inchi_key>
GIJXKZJWITVLHI-UHFFFAOYSA-N

> <Source>
Mulliner , Kotsampasakou

> <ID>
EK0058;HT0256

> <H_MFHB>
0

> <CAS>


> <Cholestasis>
0

> <Name>
benztropine mesylate;benzatropine;benztropine

> <Class>
0

$$$$