

  -INDIGO-08031710012D

 29 34  0  0  0  0  0  0  0  0999 V2000
    8.5709   -2.3530    0.0000 C   0  0  0  0  0  0  0  0  0  0  0  0
    7.6990   -3.5625    0.0000 C   0  0  0  0  0  0  0  0  0  0  0  0
    8.1670   -4.9998    0.0000 C   0  0  0  0  0  0  0  0  0  0  0  0
    9.5814   -5.4794    0.0000 O   0  0  0  0  0  0  0  0  0  0  0  0
    6.9184   -5.8351    0.0000 O   0  0  0  0  0  0  0  0  0  0  0  0
    5.6604   -5.0206    0.0000 C   0  0  0  0  0  0  0  0  0  0  0  0
    4.1484   -4.9508    0.0000 C   0  0  0  0  0  0  0  0  0  0  0  0
    3.6841   -3.4618    0.0000 C   0  0  0  0  0  0  0  0  0  0  0  0
    3.4143   -4.8411    0.0000 C   0  0  0  0  0  0  0  0  0  0  0  0
    1.8884   -4.9587    0.0000 C   0  0  0  0  0  0  0  0  0  0  0  0
    1.3250   -3.5412    0.0000 C   0  0  0  0  0  0  0  0  0  0  0  0
   -0.1604   -3.7770    0.0000 C   0  0  0  0  0  0  0  0  0  0  0  0
   -1.6469   -4.0008    0.0000 C   0  0  0  0  0  0  0  0  0  0  0  0
   -0.4202   -2.2740    0.0000 C   0  0  0  0  0  0  0  0  0  0  0  0
    0.0637   -5.2456    0.0000 C   0  0  0  0  0  0  0  0  0  0  0  0
    2.5018   -2.5673    0.0000 C   0  0  0  0  0  0  0  0  0  0  0  0
    3.1401   -1.1722    0.0000 C   0  0  0  0  0  0  0  0  0  0  0  0
    2.0335   -0.1635    0.0000 O   0  0  0  0  0  0  0  0  0  0  0  0
    0.7351   -0.8861    0.0000 C   0  0  0  0  0  0  0  0  0  0  0  0
   -0.6340   -0.2745    0.0000 O   0  0  0  0  0  0  0  0  0  0  0  0
    1.0315   -2.3642    0.0000 C   0  0  0  0  0  0  0  0  0  0  0  0
   -0.3348   -3.0066    0.0000 O   0  0  0  0  0  0  0  0  0  0  0  0
    4.6343   -1.3203    0.0000 O   0  0  0  0  0  0  0  0  0  0  0  0
    4.9564   -2.8201    0.0000 C   0  0  0  0  0  0  0  0  0  0  0  0
    5.7843   -4.1772    0.0000 C   0  0  0  0  0  0  0  0  0  0  0  0
    7.2780   -4.2877    0.0000 O   0  0  0  0  0  0  0  0  0  0  0  0
    4.8769   -5.3778    0.0000 O   0  0  0  0  0  0  0  0  0  0  0  0
    6.1883   -3.5890    0.0000 C   0  0  0  0  0  0  0  0  0  0  0  0
    6.5934   -2.1388    0.0000 O   0  0  0  0  0  0  0  0  0  0  0  0
  1  2  1  0  0  0  0
  3  2  1  0  0  0  0
  2 28  1  0  0  0  0
  3  4  2  0  0  0  0
  5  3  1  0  0  0  0
  6  5  1  0  0  0  0
  7  6  1  0  0  0  0
  6 28  1  0  0  0  0
  8  7  1  0  0  0  0
  8  9  1  0  0  0  0
 16  8  1  0  0  0  0
  8 24  1  0  0  0  0
  9 10  1  0  0  0  0
 27  9  1  0  0  0  0
 10 11  1  0  0  0  0
 11 12  1  0  0  0  0
 11 16  1  0  0  0  0
 12 13  1  0  0  0  0
 12 14  1  0  0  0  0
 12 15  1  0  0  0  0
 17 16  1  0  0  0  0
 16 21  1  0  0  0  0
 18 17  1  0  0  0  0
 17 23  1  0  0  0  0
 19 18  1  0  0  0  0
 19 20  2  0  0  0  0
 21 19  1  0  0  0  0
 21 22  1  0  0  0  0
 23 24  1  0  0  0  0
 24 25  1  0  0  0  0
 28 24  1  0  0  0  0
 25 26  2  0  0  0  0
 25 27  1  0  0  0  0
 28 29  1  0  0  0  0
M  END
> <Inchi_key>
FPUXKXIZEIDQKW-UHFFFAOYSA-N

> <Source>
Mulliner

> <ID>
HT0975

> <H_MFHB>
0

> <CAS>


> <Cholestasis>


> <Name>
ginkgolide-a

> <Class>
0


$$$$