

  -INDIGO-08031710012D

 21 21  0  0  0  0  0  0  0  0999 V2000
    6.8572   -0.8660    0.0000 C   0  0  0  0  0  0  0  0  0  0  0  0
    6.1071   -2.1651    0.0000 N   0  0  0  0  0  0  0  0  0  0  0  0
    6.8572   -3.4641    0.0000 C   0  0  0  0  0  0  0  0  0  0  0  0
    8.3571   -3.4641    0.0000 O   0  0  0  0  0  0  0  0  0  0  0  0
    6.1071   -4.7631    0.0000 C   0  0  0  0  0  0  0  0  0  0  0  0
    4.6071   -2.1651    0.0000 C   0  0  0  0  0  0  0  0  0  0  0  0
    3.8572   -3.4641    0.0000 C   0  0  0  0  0  0  0  0  0  0  0  0
    4.6071   -4.7631    0.0000 I   0  0  0  0  0  0  0  0  0  0  0  0
    2.3571   -3.4641    0.0000 C   0  0  0  0  0  0  0  0  0  0  0  0
    1.6071   -4.7631    0.0000 N   0  0  0  0  0  0  0  0  0  0  0  0
    0.1071   -4.7631    0.0000 C   0  0  0  0  0  0  0  0  0  0  0  0
   -0.6429   -3.4641    0.0000 O   0  0  0  0  0  0  0  0  0  0  0  0
   -0.6429   -6.0622    0.0000 C   0  0  0  0  0  0  0  0  0  0  0  0
    1.6071   -2.1651    0.0000 C   0  0  0  0  0  0  0  0  0  0  0  0
    0.1071   -2.1651    0.0000 I   0  0  0  0  0  0  0  0  0  0  0  0
    2.3571   -0.8660    0.0000 C   0  0  0  0  0  0  0  0  0  0  0  0
    1.6071    0.4330    0.0000 C   0  0  0  0  0  0  0  0  0  0  0  0
    0.1071    0.4330    0.0000 O   0  0  0  0  0  0  0  0  0  0  0  0
    2.3571    1.7321    0.0000 O   0  0  0  0  0  0  0  0  0  0  0  0
    3.8572   -0.8660    0.0000 C   0  0  0  0  0  0  0  0  0  0  0  0
    4.6071    0.4330    0.0000 I   0  0  0  0  0  0  0  0  0  0  0  0
  1  2  1  0  0  0  0
  2  3  1  0  0  0  0
  2  6  1  0  0  0  0
  3  4  2  0  0  0  0
  3  5  1  0  0  0  0
  7  6  2  0  0  0  0
  6 20  1  0  0  0  0
  7  8  1  0  0  0  0
  9  7  1  0  0  0  0
  9 10  1  0  0  0  0
 14  9  2  0  0  0  0
 10 11  1  0  0  0  0
 11 12  2  0  0  0  0
 11 13  1  0  0  0  0
 14 15  1  0  0  0  0
 16 14  1  0  0  0  0
 16 17  1  0  0  0  0
 20 16  2  0  0  0  0
 17 18  2  0  0  0  0
 17 19  1  0  0  0  0
 20 21  1  0  0  0  0
M  END
> <Inchi_key>
GGGDNPWHMNJRFN-UHFFFAOYSA-N

> <Source>
Mulliner

> <ID>
HT3962

> <H_MFHB>
0

> <CAS>


> <Cholestasis>


> <Name>


> <Class>
0


$$$$