
  -INDIGO-08031710012D

 15 16  0  0  0  0  0  0  0  0999 V2000
   -0.0413   -0.5823    0.0000 C   0  0  0  0  0  0  0  0  0  0  0  0
    1.4444   -0.3756    0.0000 N   0  0  0  0  0  0  0  0  0  0  0  0
    2.1504    0.9478    0.0000 C   0  0  0  0  0  0  0  0  0  0  0  0
    1.4947    2.2969    0.0000 O   0  0  0  0  0  0  0  0  0  0  0  0
    3.6273    0.6853    0.0000 C   0  0  0  0  0  0  0  0  0  0  0  0
    3.8341   -0.8004    0.0000 C   0  0  0  0  0  0  0  0  0  0  0  0
    4.5594   -2.1133    0.0000 C   0  0  0  0  0  0  0  0  0  0  0  0
    2.4848   -1.4561    0.0000 C   0  0  0  0  0  0  0  0  0  0  0  0
    2.2222   -2.9329    0.0000 O   0  0  0  0  0  0  0  0  0  0  0  0
    5.3338   -0.7763    0.0000 C   0  0  0  0  0  0  0  0  0  0  0  0
    6.0628    0.5346    0.0000 C   0  0  0  0  0  0  0  0  0  0  0  0
    7.5626    0.5587    0.0000 C   0  0  0  0  0  0  0  0  0  0  0  0
    8.3334   -0.7281    0.0000 C   0  0  0  0  0  0  0  0  0  0  0  0
    7.6044   -2.0390    0.0000 C   0  0  0  0  0  0  0  0  0  0  0  0
    6.1045   -2.0631    0.0000 C   0  0  0  0  0  0  0  0  0  0  0  0
  1  2  1  0  0  0  0
  3  2  1  0  0  0  0
  2  8  1  0  0  0  0
  3  4  2  0  0  0  0
  5  3  1  0  0  0  0
  6  5  1  0  0  0  0
  6  7  1  0  0  0  0
  8  6  1  0  0  0  0
  6 10  1  0  0  0  0
  8  9  2  0  0  0  0
 11 10  2  0  0  0  0
 10 15  1  0  0  0  0
 12 11  1  0  0  0  0
 13 12  2  0  0  0  0
 14 13  1  0  0  0  0
 15 14  2  0  0  0  0
M  END
> <Inchi_key>
AJXPJJZHWIXJCJ-UHFFFAOYSA-N

> <Source>
Mulliner , Kotsampasakou

> <ID>
EK0335;HT1354

> <H_MFHB>
0

> <CAS>


> <Cholestasis>
0

> <Name>
methsuximide

> <Class>
0

$$$$