

  -INDIGO-08031710012D

 44 48  0  0  0  0  0  0  0  0999 V2000
    1.6421   -2.8188    0.0000 O   0  0  0  0  0  0  0  0  0  0  0  0
    2.3820   -1.5142    0.0000 C   0  0  0  0  0  0  0  0  0  0  0  0
    3.1865   -2.7801    0.0000 C   0  0  0  0  0  0  0  0  0  0  0  0
    4.6852   -2.7162    0.0000 O   0  0  0  0  0  0  0  0  0  0  0  0
    5.4899   -3.9821    0.0000 C   0  0  0  0  0  0  0  0  0  0  0  0
    4.7958   -5.3119    0.0000 O   0  0  0  0  0  0  0  0  0  0  0  0
    6.9886   -3.9183    0.0000 C   0  0  0  0  0  0  0  0  0  0  0  0
    7.6825   -2.5885    0.0000 C   0  0  0  0  0  0  0  0  0  0  0  0
    9.1811   -2.5247    0.0000 C   0  0  0  0  0  0  0  0  0  0  0  0
    9.9859   -3.7907    0.0000 C   0  0  0  0  0  0  0  0  0  0  0  0
    9.2917   -5.1205    0.0000 N   0  0  0  0  0  0  0  0  0  0  0  0
    7.7931   -5.1843    0.0000 C   0  0  0  0  0  0  0  0  0  0  0  0
    3.5405   -0.5612    0.0000 O   0  0  0  0  0  0  0  0  0  0  0  0
    2.9921    0.8348    0.0000 C   0  0  0  0  0  0  0  0  0  0  0  0
    3.7994    2.0992    0.0000 C   0  0  0  0  0  0  0  0  0  0  0  0
    5.2979    2.0322    0.0000 O   0  0  0  0  0  0  0  0  0  0  0  0
    6.1052    3.2964    0.0000 C   0  0  0  0  0  0  0  0  0  0  0  0
    5.4141    4.6277    0.0000 O   0  0  0  0  0  0  0  0  0  0  0  0
    7.6036    3.2293    0.0000 C   0  0  0  0  0  0  0  0  0  0  0  0
    8.4109    4.4935    0.0000 C   0  0  0  0  0  0  0  0  0  0  0  0
    9.9096    4.4266    0.0000 C   0  0  0  0  0  0  0  0  0  0  0  0
   10.6007    3.0953    0.0000 C   0  0  0  0  0  0  0  0  0  0  0  0
    9.7934    1.8312    0.0000 N   0  0  0  0  0  0  0  0  0  0  0  0
    8.2950    1.8982    0.0000 C   0  0  0  0  0  0  0  0  0  0  0  0
    1.4949    0.7449    0.0000 C   0  0  0  0  0  0  0  0  0  0  0  0
    0.5420    1.9035    0.0000 O   0  0  0  0  0  0  0  0  0  0  0  0
   -0.9378    1.6575    0.0000 C   0  0  0  0  0  0  0  0  0  0  0  0
   -1.4647    0.2529    0.0000 O   0  0  0  0  0  0  0  0  0  0  0  0
   -1.8907    2.8157    0.0000 C   0  0  0  0  0  0  0  0  0  0  0  0
   -3.3702    2.5697    0.0000 C   0  0  0  0  0  0  0  0  0  0  0  0
   -4.3231    3.7282    0.0000 C   0  0  0  0  0  0  0  0  0  0  0  0
   -3.7965    5.1327    0.0000 C   0  0  0  0  0  0  0  0  0  0  0  0
   -2.3168    5.3787    0.0000 N   0  0  0  0  0  0  0  0  0  0  0  0
   -1.3639    4.2203    0.0000 C   0  0  0  0  0  0  0  0  0  0  0  0
    1.1178   -0.7068    0.0000 C   0  0  0  0  0  0  0  0  0  0  0  0
   -0.2784   -1.2551    0.0000 O   0  0  0  0  0  0  0  0  0  0  0  0
   -0.5017   -2.7384    0.0000 C   0  0  0  0  0  0  0  0  0  0  0  0
    0.6712   -3.6735    0.0000 O   0  0  0  0  0  0  0  0  0  0  0  0
   -1.8979   -3.2866    0.0000 C   0  0  0  0  0  0  0  0  0  0  0  0
   -3.0709   -2.3517    0.0000 C   0  0  0  0  0  0  0  0  0  0  0  0
   -4.4671   -2.8999    0.0000 C   0  0  0  0  0  0  0  0  0  0  0  0
   -4.6904   -4.3833    0.0000 C   0  0  0  0  0  0  0  0  0  0  0  0
   -3.5175   -5.3183    0.0000 N   0  0  0  0  0  0  0  0  0  0  0  0
   -2.1212   -4.7700    0.0000 C   0  0  0  0  0  0  0  0  0  0  0  0
  1  2  1  0  0  0  0
  2  3  1  0  0  0  0
 13  2  1  0  0  0  0
  2 35  1  0  0  0  0
  3  4  1  0  0  0  0
  4  5  1  0  0  0  0
  5  6  2  0  0  0  0
  5  7  1  0  0  0  0
  8  7  2  0  0  0  0
  7 12  1  0  0  0  0
  9  8  1  0  0  0  0
 10  9  2  0  0  0  0
 11 10  1  0  0  0  0
 12 11  2  0  0  0  0
 14 13  1  0  0  0  0
 14 15  1  0  0  0  0
 25 14  1  0  0  0  0
 15 16  1  0  0  0  0
 16 17  1  0  0  0  0
 17 18  2  0  0  0  0
 17 19  1  0  0  0  0
 20 19  2  0  0  0  0
 19 24  1  0  0  0  0
 21 20  1  0  0  0  0
 22 21  2  0  0  0  0
 23 22  1  0  0  0  0
 24 23  2  0  0  0  0
 25 26  1  0  0  0  0
 35 25  1  0  0  0  0
 26 27  1  0  0  0  0
 27 28  2  0  0  0  0
 27 29  1  0  0  0  0
 30 29  2  0  0  0  0
 29 34  1  0  0  0  0
 31 30  1  0  0  0  0
 32 31  2  0  0  0  0
 33 32  1  0  0  0  0
 34 33  2  0  0  0  0
 35 36  1  0  0  0  0
 36 37  1  0  0  0  0
 37 38  2  0  0  0  0
 37 39  1  0  0  0  0
 40 39  2  0  0  0  0
 39 44  1  0  0  0  0
 41 40  1  0  0  0  0
 42 41  2  0  0  0  0
 43 42  1  0  0  0  0
 44 43  2  0  0  0  0
M  END
> <Inchi_key>
FUWFSXZKBMCSKF-UHFFFAOYSA-N

> <Source>
Mulliner

> <ID>
HT3948

> <H_MFHB>
0

> <CAS>


> <Cholestasis>


> <Name>


> <Class>
0


$$$$