
  -INDIGO-08031710012D

 26 26  0  0  0  0  0  0  0  0999 V2000
   18.6923    5.0962    0.0000 C   0  0  0  0  0  0  0  0  0  0  0  0
   17.9422    6.3953    0.0000 C   0  0  0  0  0  0  0  0  0  0  0  0
   16.4422    6.3953    0.0000 C   0  0  0  0  0  0  0  0  0  0  0  0
   15.6924    7.6943    0.0000 C   0  0  0  0  0  0  0  0  0  0  0  0
   14.1924    7.6943    0.0000 C   0  0  0  0  0  0  0  0  0  0  0  0
   13.4423    8.9933    0.0000 C   0  0  0  0  0  0  0  0  0  0  0  0
   11.9423    8.9933    0.0000 C   0  0  0  0  0  0  0  0  0  0  0  0
   11.1922   10.2924    0.0000 N   0  0  0  0  0  0  0  0  0  0  0  0
   11.9423   11.5914    0.0000 C   0  0  0  0  0  0  0  0  0  0  0  0
   11.1922   12.8905    0.0000 C   0  0  0  0  0  0  0  0  0  0  0  0
    9.6922   10.2924    0.0000 C   0  0  0  0  0  0  0  0  0  0  0  0
    8.9424    8.9933    0.0000 C   0  0  0  0  0  0  0  0  0  0  0  0
    7.4424    8.9933    0.0000 C   0  0  0  0  0  0  0  0  0  0  0  0
    6.6923    7.6943    0.0000 C   0  0  0  0  0  0  0  0  0  0  0  0
    7.4424    6.3953    0.0000 O   0  0  0  0  0  0  0  0  0  0  0  0
    5.1923    7.6943    0.0000 C   0  0  0  0  0  0  0  0  0  0  0  0
    4.4422    6.3953    0.0000 C   0  0  0  0  0  0  0  0  0  0  0  0
    2.9422    6.3953    0.0000 C   0  0  0  0  0  0  0  0  0  0  0  0
    2.1924    7.6943    0.0000 C   0  0  0  0  0  0  0  0  0  0  0  0
    0.6924    7.6943    0.0000 N   0  0  0  0  0  0  0  0  0  0  0  0
   -0.0577    6.3953    0.0000 S   0  0  0  0  0  0  0  0  0  0  0  0
    1.2412    5.6453    0.0000 O   0  0  0  0  0  0  0  0  0  0  0  0
   -1.3567    7.1453    0.0000 O   0  0  0  0  0  0  0  0  0  0  0  0
   -0.8076    5.0962    0.0000 C   0  0  0  0  0  0  0  0  0  0  0  0
    2.9422    8.9933    0.0000 C   0  0  0  0  0  0  0  0  0  0  0  0
    4.4422    8.9933    0.0000 C   0  0  0  0  0  0  0  0  0  0  0  0
  1  2  1  0  0  0  0
  2  3  1  0  0  0  0
  3  4  1  0  0  0  0
  4  5  1  0  0  0  0
  5  6  1  0  0  0  0
  6  7  1  0  0  0  0
  7  8  1  0  0  0  0
  8  9  1  0  0  0  0
  8 11  1  0  0  0  0
  9 10  1  0  0  0  0
 11 12  1  0  0  0  0
 12 13  1  0  0  0  0
 13 14  1  0  0  0  0
 14 15  1  0  0  0  0
 14 16  1  0  0  0  0
 17 16  2  0  0  0  0
 16 26  1  0  0  0  0
 18 17  1  0  0  0  0
 19 18  2  0  0  0  0
 19 20  1  0  0  0  0
 25 19  1  0  0  0  0
 20 21  1  0  0  0  0
 21 22  2  0  0  0  0
 21 23  2  0  0  0  0
 21 24  1  0  0  0  0
 26 25  2  0  0  0  0
M  END
> <Inchi_key>
ALOBUEHUHMBRLE-UHFFFAOYSA-N

> <Source>
Mulliner , Kotsampasakou

> <ID>
EK0265;HT1071

> <H_MFHB>
0

> <CAS>


> <Cholestasis>
0

> <Name>
ibutilide fumarate;ibutilide

> <Class>
0

$$$$