
  -INDIGO-08031710012D

 21 24  0  0  0  0  0  0  0  0999 V2000
   -0.2879    0.5505    0.0000 C   0  0  0  0  0  0  0  0  0  0  0  0
    0.5678    1.7825    0.0000 C   0  0  0  0  0  0  0  0  0  0  0  0
    1.3226    0.4863    0.0000 C   0  0  0  0  0  0  0  0  0  0  0  0
    2.8227    0.4919    0.0000 C   0  0  0  0  0  0  0  0  0  0  0  0
    3.5678    1.7938    0.0000 C   0  0  0  0  0  0  0  0  0  0  0  0
    2.8130    3.0900    0.0000 C   0  0  0  0  0  0  0  0  0  0  0  0
    3.5581    4.3918    0.0000 C   0  0  0  0  0  0  0  0  0  0  0  0
    5.0580    4.3975    0.0000 C   0  0  0  0  0  0  0  0  0  0  0  0
    5.8130    3.1013    0.0000 C   0  0  0  0  0  0  0  0  0  0  0  0
    7.3129    3.1070    0.0000 C   0  0  0  0  0  0  0  0  0  0  0  0
    8.0677    1.8108    0.0000 C   0  0  0  0  0  0  0  0  0  0  0  0
    9.5678    1.8164    0.0000 O   0  0  0  0  0  0  0  0  0  0  0  0
    7.3226    0.5089    0.0000 C   0  0  0  0  0  0  0  0  0  0  0  0
    5.8227    0.5033    0.0000 C   0  0  0  0  0  0  0  0  0  0  0  0
    5.0677    1.7995    0.0000 C   0  0  0  0  0  0  0  0  0  0  0  0
    4.3226    0.4976    0.0000 C   0  0  0  0  0  0  0  0  0  0  0  0
    1.3129    3.0843    0.0000 C   0  0  0  0  0  0  0  0  0  0  0  0
    0.3051    4.1953    0.0000 C   0  0  0  0  0  0  0  0  0  0  0  0
   -1.0630    3.5800    0.0000 C   0  0  0  0  0  0  0  0  0  0  0  0
   -0.9007    2.0888    0.0000 C   0  0  0  0  0  0  0  0  0  0  0  0
   -2.0115    1.0809    0.0000 O   0  0  0  0  0  0  0  0  0  0  0  0
  1  2  1  0  0  0  0
  3  2  1  0  0  0  0
 17  2  1  0  0  0  0
  2 20  1  0  0  0  0
  4  3  1  0  0  0  0
  5  4  1  0  0  0  0
  5  6  1  0  0  0  0
 15  5  1  0  0  0  0
  6  7  1  0  0  0  0
 17  6  1  0  0  0  0
  7  8  1  0  0  0  0
  8  9  2  0  0  0  0
 10  9  1  0  0  0  0
  9 15  1  0  0  0  0
 11 10  1  0  0  0  0
 11 12  1  0  0  0  0
 13 11  1  0  0  0  0
 14 13  1  0  0  0  0
 15 14  1  0  0  0  0
 15 16  1  0  0  0  0
 18 17  1  0  0  0  0
 19 18  1  0  0  0  0
 20 19  1  0  0  0  0
 20 21  2  0  0  0  0
M  END
> <Inchi_key>
FMGSKLZLMKYGDP-UHFFFAOYSA-N

> <Source>
Mulliner

> <ID>
HT0603

> <H_MFHB>
0

> <CAS>
53-43-0

> <Cholestasis>


> <Name>
dehydroepiandrosterone;prasterone

> <Class>
0

$$$$