
  -INDIGO-08031710012D

 10 11  0  0  0  0  0  0  0  0999 V2000
    0.5655   -1.6186    0.0000 N   0  0  0  0  0  0  0  0  0  0  0  0
    1.3155   -0.3196    0.0000 C   0  0  0  0  0  0  0  0  0  0  0  0
    2.8155   -0.3196    0.0000 C   0  0  0  0  0  0  0  0  0  0  0  0
    3.8192    0.7952    0.0000 N   0  0  0  0  0  0  0  0  0  0  0  0
    1.3155   -2.9176    0.0000 C   0  0  0  0  0  0  0  0  0  0  0  0
    2.8155   -2.9176    0.0000 N   0  0  0  0  0  0  0  0  0  0  0  0
    3.5655   -1.6186    0.0000 C   0  0  0  0  0  0  0  0  0  0  0  0
    5.0327   -1.3067    0.0000 N   0  0  0  0  0  0  0  0  0  0  0  0
    5.1895    0.1851    0.0000 C   0  0  0  0  0  0  0  0  0  0  0  0
    0.5655    0.9795    0.0000 N   0  0  0  0  0  0  0  0  0  0  0  0
  2  1  2  0  0  0  0
  3  2  1  0  0  0  0
  3  4  1  0  0  0  0
  1  5  1  0  0  0  0
  5  6  2  0  0  0  0
  6  7  1  0  0  0  0
  8  7  1  0  0  0  0
  7  3  2  0  0  0  0
  9  8  2  0  0  0  0
  4  9  1  0  0  0  0
  2 10  1  0  0  0  0
M  END
> <Inchi_key>
GFFGJBXGBJISGV-UHFFFAOYSA-N

> <Source>
Mulliner

> <ID>
HT0074

> <H_MFHB>
0

> <CAS>


> <Cholestasis>


> <Name>
adenine

> <Class>
0

$$$$