

  -INDIGO-08031710012D

 18 19  0  0  0  0  0  0  0  0999 V2000
    1.2268    6.3440    0.0000 C   0  0  0  0  0  0  0  0  0  0  0  0
    1.2190    4.8440    0.0000 C   0  0  0  0  0  0  0  0  0  0  0  0
    2.5141    4.0872    0.0000 C   0  0  0  0  0  0  0  0  0  0  0  0
    2.5061    2.5872    0.0000 C   0  0  0  0  0  0  0  0  0  0  0  0
    1.2031    1.8441    0.0000 C   0  0  0  0  0  0  0  0  0  0  0  0
   -0.0919    2.6010    0.0000 C   0  0  0  0  0  0  0  0  0  0  0  0
   -0.8488    1.3059    0.0000 C   0  0  0  0  0  0  0  0  0  0  0  0
   -1.5919    2.6089    0.0000 C   0  0  0  0  0  0  0  0  0  0  0  0
   -0.0840    4.1009    0.0000 C   0  0  0  0  0  0  0  0  0  0  0  0
    3.8011    1.8303    0.0000 O   0  0  0  0  0  0  0  0  0  0  0  0
    5.1041    2.5734    0.0000 C   0  0  0  0  0  0  0  0  0  0  0  0
    5.1121    4.0734    0.0000 O   0  0  0  0  0  0  0  0  0  0  0  0
    6.3992    1.8165    0.0000 C   0  0  0  0  0  0  0  0  0  0  0  0
    6.5480    0.3239    0.0000 C   0  0  0  0  0  0  0  0  0  0  0  0
    8.0137    0.0043    0.0000 C   0  0  0  0  0  0  0  0  0  0  0  0
    8.7705    1.2993    0.0000 C   0  0  0  0  0  0  0  0  0  0  0  0
   10.2631    1.4482    0.0000 O   0  0  0  0  0  0  0  0  0  0  0  0
    7.7727    2.4194    0.0000 N   0  0  0  0  0  0  0  0  0  0  0  0
  1  2  1  0  0  0  0
  3  2  1  0  0  0  0
  2  9  1  0  0  0  0
  4  3  1  0  0  0  0
  5  4  1  0  0  0  0
  4 10  1  0  0  0  0
  6  5  1  0  0  0  0
  6  7  1  0  0  0  0
  6  8  1  0  0  0  0
  9  6  1  0  0  0  0
 10 11  1  0  0  0  0
 11 12  2  0  0  0  0
 11 13  1  0  0  0  0
 14 13  1  0  0  0  0
 13 18  1  0  0  0  0
 15 14  1  0  0  0  0
 16 15  1  0  0  0  0
 16 17  2  0  0  0  0
 18 16  1  0  0  0  0
M  END
> <Inchi_key>
FXAAOALUHHXBSO-UHFFFAOYSA-N

> <Source>
Mulliner

> <ID>
HT0555

> <H_MFHB>
0

> <CAS>
120551-59-9

> <Cholestasis>


> <Name>
crilvastatin

> <Class>
0


$$$$