
  -INDIGO-08031709442D

 19 21  0  0  0  0  0  0  0  0999 V2000
   -7.1842    4.2390    0.0000 N   0  0  0  0  0  0  0  0  0  0  0  0
   -5.6842    4.2390    0.0000 C   0  0  0  0  0  0  0  0  0  0  0  0
   -4.9342    5.5380    0.0000 N   0  0  0  0  0  0  0  0  0  0  0  0
   -4.9342    2.9399    0.0000 C   0  0  0  0  0  0  0  0  0  0  0  0
   -3.4342    2.9399    0.0000 N   0  0  0  0  0  0  0  0  0  0  0  0
   -2.6842    1.6409    0.0000 C   0  0  0  0  0  0  0  0  0  0  0  0
   -1.1842    1.6409    0.0000 C   0  0  0  0  0  0  0  0  0  0  0  0
   -0.4342    2.9399    0.0000 C   0  0  0  0  0  0  0  0  0  0  0  0
    1.0658    2.9399    0.0000 C   0  0  0  0  0  0  0  0  0  0  0  0
    1.8158    1.6409    0.0000 C   0  0  0  0  0  0  0  0  0  0  0  0
    1.0658    0.3419    0.0000 C   0  0  0  0  0  0  0  0  0  0  0  0
   -0.4342    0.3419    0.0000 C   0  0  0  0  0  0  0  0  0  0  0  0
   -3.4342    0.3419    0.0000 C   0  0  0  0  0  0  0  0  0  0  0  0
   -4.9342    0.3419    0.0000 N   0  0  0  0  0  0  0  0  0  0  0  0
   -5.6842    1.6409    0.0000 C   0  0  0  0  0  0  0  0  0  0  0  0
   -7.1842    1.6409    0.0000 N   0  0  0  0  0  0  0  0  0  0  0  0
   -7.9342    2.9399    0.0000 C   0  0  0  0  0  0  0  0  0  0  0  0
   -9.4342    2.9399    0.0000 N   0  0  0  0  0  0  0  0  0  0  0  0
   -2.6842   -0.9572    0.0000 N   0  0  0  0  0  0  0  0  0  0  0  0
  2  1  2  0  0  0  0
  1 17  1  0  0  0  0
  2  3  1  0  0  0  0
  4  2  1  0  0  0  0
  5  4  2  0  0  0  0
  4 15  1  0  0  0  0
  6  5  1  0  0  0  0
  6  7  1  0  0  0  0
 13  6  2  0  0  0  0
  8  7  2  0  0  0  0
  7 12  1  0  0  0  0
  9  8  1  0  0  0  0
 10  9  2  0  0  0  0
 11 10  1  0  0  0  0
 12 11  2  0  0  0  0
 14 13  1  0  0  0  0
 13 19  1  0  0  0  0
 15 14  2  0  0  0  0
 16 15  1  0  0  0  0
 17 16  2  0  0  0  0
 17 18  1  0  0  0  0
M  END
> <Inchi_key>
FNYLWPVRPXGIIP-UHFFFAOYSA-N

> <Source>
Kotsampasakou

> <ID>
EK0547

> <H_MFHB>


> <CAS>


> <Cholestasis>
0

> <Name>
triamterene

> <Class>
0

$$$$