

  -INDIGO-08031710012D

 19 19  0  0  0  0  0  0  0  0999 V2000
   17.3856    0.9479    0.0000 C   0  0  0  0  0  0  0  0  0  0  0  0
   16.0866    1.6979    0.0000 C   0  0  0  0  0  0  0  0  0  0  0  0
   14.7876    0.9479    0.0000 C   0  0  0  0  0  0  0  0  0  0  0  0
   13.4886    1.6979    0.0000 C   0  0  0  0  0  0  0  0  0  0  0  0
   12.1893    0.9479    0.0000 N   0  0  0  0  0  0  0  0  0  0  0  0
   10.8903    1.6979    0.0000 C   0  0  0  0  0  0  0  0  0  0  0  0
    9.5913    0.9479    0.0000 C   0  0  0  0  0  0  0  0  0  0  0  0
    8.2923    1.6979    0.0000 C   0  0  0  0  0  0  0  0  0  0  0  0
    8.2923    3.1979    0.0000 C   0  0  0  0  0  0  0  0  0  0  0  0
    9.5913    3.9479    0.0000 C   0  0  0  0  0  0  0  0  0  0  0  0
   10.8903    3.1979    0.0000 C   0  0  0  0  0  0  0  0  0  0  0  0
    6.9934    3.9479    0.0000 C   0  0  0  0  0  0  0  0  0  0  0  0
    6.9934    5.4479    0.0000 O   0  0  0  0  0  0  0  0  0  0  0  0
    5.6941    3.1979    0.0000 O   0  0  0  0  0  0  0  0  0  0  0  0
    4.3951    3.9479    0.0000 C   0  0  0  0  0  0  0  0  0  0  0  0
    3.0961    3.1979    0.0000 C   0  0  0  0  0  0  0  0  0  0  0  0
    1.7971    3.9479    0.0000 N   0  0  0  0  0  0  0  0  0  0  0  0
    1.7971    5.4479    0.0000 C   0  0  0  0  0  0  0  0  0  0  0  0
    0.4981    3.1979    0.0000 C   0  0  0  0  0  0  0  0  0  0  0  0
  1  2  1  0  0  0  0
  2  3  1  0  0  0  0
  3  4  1  0  0  0  0
  4  5  1  0  0  0  0
  5  6  1  0  0  0  0
  7  6  2  0  0  0  0
  6 11  1  0  0  0  0
  8  7  1  0  0  0  0
  9  8  2  0  0  0  0
 10  9  1  0  0  0  0
  9 12  1  0  0  0  0
 11 10  2  0  0  0  0
 12 13  2  0  0  0  0
 12 14  1  0  0  0  0
 14 15  1  0  0  0  0
 15 16  1  0  0  0  0
 16 17  1  0  0  0  0
 17 18  1  0  0  0  0
 17 19  1  0  0  0  0
M  END
> <Inchi_key>
GKCBAIGFKIBETG-UHFFFAOYSA-N

> <Source>
Mulliner , Kotsampasakou

> <ID>
EK0517;HT2024

> <H_MFHB>
0

> <CAS>


> <Cholestasis>
0

> <Name>
tetracaine

> <Class>
0


$$$$