
  -INDIGO-08031710012D

 34 35  0  0  0  0  0  0  0  0999 V2000
    8.5462    4.9341    0.0000 C   0  0  0  0  0  0  0  0  0  0  0  0
    7.7962    3.6352    0.0000 N   0  0  0  0  0  0  0  0  0  0  0  0
    6.2962    3.6352    0.0000 C   0  0  0  0  0  0  0  0  0  0  0  0
    5.5462    2.3362    0.0000 O   0  0  0  0  0  0  0  0  0  0  0  0
    5.5462    4.9341    0.0000 C   0  0  0  0  0  0  0  0  0  0  0  0
    4.0462    4.9341    0.0000 N   0  0  0  0  0  0  0  0  0  0  0  0
    3.2964    6.2332    0.0000 C   0  0  0  0  0  0  0  0  0  0  0  0
    4.0462    7.5322    0.0000 C   0  0  0  0  0  0  0  0  0  0  0  0
    3.2964    8.8313    0.0000 O   0  0  0  0  0  0  0  0  0  0  0  0
    3.2964    3.6352    0.0000 C   0  0  0  0  0  0  0  0  0  0  0  0
    1.7964    3.6352    0.0000 C   0  0  0  0  0  0  0  0  0  0  0  0
    1.0464    4.9341    0.0000 O   0  0  0  0  0  0  0  0  0  0  0  0
    1.0464    2.3362    0.0000 N   0  0  0  0  0  0  0  0  0  0  0  0
    1.7964    1.0371    0.0000 C   0  0  0  0  0  0  0  0  0  0  0  0
   -0.4536    2.3362    0.0000 C   0  0  0  0  0  0  0  0  0  0  0  0
   -0.4536    0.8360    0.0000 C   0  0  0  0  0  0  0  0  0  0  0  0
   -0.4536    3.8361    0.0000 C   0  0  0  0  0  0  0  0  0  0  0  0
   -1.9537    2.3362    0.0000 C   0  0  0  0  0  0  0  0  0  0  0  0
   -2.7037    1.0371    0.0000 C   0  0  0  0  0  0  0  0  0  0  0  0
   -4.2037    1.0371    0.0000 C   0  0  0  0  0  0  0  0  0  0  0  0
   -4.9537   -0.2619    0.0000 C   0  0  0  0  0  0  0  0  0  0  0  0
   -4.2037   -1.5610    0.0000 C   0  0  0  0  0  0  0  0  0  0  0  0
   -2.7037   -1.5610    0.0000 C   0  0  0  0  0  0  0  0  0  0  0  0
   -1.9537   -0.2619    0.0000 C   0  0  0  0  0  0  0  0  0  0  0  0
    8.5462    2.3362    0.0000 C   0  0  0  0  0  0  0  0  0  0  0  0
    9.2962    1.0371    0.0000 C   0  0  0  0  0  0  0  0  0  0  0  0
    7.2473    1.5861    0.0000 C   0  0  0  0  0  0  0  0  0  0  0  0
    9.8454    3.0861    0.0000 C   0  0  0  0  0  0  0  0  0  0  0  0
   11.1443    2.3362    0.0000 C   0  0  0  0  0  0  0  0  0  0  0  0
   12.4435    3.0861    0.0000 C   0  0  0  0  0  0  0  0  0  0  0  0
   13.7424    2.3362    0.0000 C   0  0  0  0  0  0  0  0  0  0  0  0
   13.7424    0.8360    0.0000 C   0  0  0  0  0  0  0  0  0  0  0  0
   12.4435    0.0861    0.0000 C   0  0  0  0  0  0  0  0  0  0  0  0
   11.1443    0.8360    0.0000 C   0  0  0  0  0  0  0  0  0  0  0  0
  1  2  1  0  0  0  0
  2  3  1  0  0  0  0
  2 25  1  0  0  0  0
  3  4  2  0  0  0  0
  3  5  1  0  0  0  0
  5  6  1  0  0  0  0
  6  7  1  0  0  0  0
  6 10  1  0  0  0  0
  7  8  1  0  0  0  0
  8  9  1  0  0  0  0
 10 11  1  0  0  0  0
 11 12  2  0  0  0  0
 11 13  1  0  0  0  0
 13 14  1  0  0  0  0
 13 15  1  0  0  0  0
 15 16  1  0  0  0  0
 15 17  1  0  0  0  0
 15 18  1  0  0  0  0
 18 19  1  0  0  0  0
 20 19  2  0  0  0  0
 19 24  1  0  0  0  0
 21 20  1  0  0  0  0
 22 21  2  0  0  0  0
 23 22  1  0  0  0  0
 24 23  2  0  0  0  0
 25 26  1  0  0  0  0
 25 27  1  0  0  0  0
 25 28  1  0  0  0  0
 28 29  1  0  0  0  0
 30 29  2  0  0  0  0
 29 34  1  0  0  0  0
 31 30  1  0  0  0  0
 32 31  2  0  0  0  0
 33 32  1  0  0  0  0
 34 33  2  0  0  0  0
M  END
> <Inchi_key>
FTLDJPRFCGDUFH-UHFFFAOYSA-N

> <Source>
Mulliner

> <ID>
HT1558

> <H_MFHB>
0

> <CAS>


> <Cholestasis>


> <Name>
oxethazaine

> <Class>
0

$$$$