

  -INDIGO-08031710012D

 31 32  0  0  0  0  0  0  0  0999 V2000
   10.4192  -15.8965    0.0000 C   0  0  0  0  0  0  0  0  0  0  0  0
   11.0175  -14.5211    0.0000 C   0  0  0  0  0  0  0  0  0  0  0  0
   12.5080  -14.3516    0.0000 C   0  0  0  0  0  0  0  0  0  0  0  0
   10.1256  -13.3151    0.0000 O   0  0  0  0  0  0  0  0  0  0  0  0
    8.6351  -13.4843    0.0000 C   0  0  0  0  0  0  0  0  0  0  0  0
    8.0369  -14.8598    0.0000 O   0  0  0  0  0  0  0  0  0  0  0  0
    7.7433  -12.2783    0.0000 C   0  0  0  0  0  0  0  0  0  0  0  0
    6.2531  -12.4478    0.0000 C   0  0  0  0  0  0  0  0  0  0  0  0
    5.3609  -11.2418    0.0000 C   0  0  0  0  0  0  0  0  0  0  0  0
    3.8707  -11.4110    0.0000 C   0  0  0  0  0  0  0  0  0  0  0  0
    2.9785  -10.2050    0.0000 C   0  0  0  0  0  0  0  0  0  0  0  0
    3.5771   -8.8298    0.0000 C   0  0  0  0  0  0  0  0  0  0  0  0
    2.6853   -7.6238    0.0000 C   0  0  0  0  0  0  0  0  0  0  0  0
    3.1369   -6.1931    0.0000 C   0  0  0  0  0  0  0  0  0  0  0  0
    4.5595   -5.7176    0.0000 O   0  0  0  0  0  0  0  0  0  0  0  0
    1.9159   -5.3218    0.0000 C   0  0  0  0  0  0  0  0  0  0  0  0
    0.7098   -6.2136    0.0000 C   0  0  0  0  0  0  0  0  0  0  0  0
   -0.7206   -5.7623    0.0000 O   0  0  0  0  0  0  0  0  0  0  0  0
    1.1853   -7.6363    0.0000 C   0  0  0  0  0  0  0  0  0  0  0  0
    0.3140   -8.8573    0.0000 C   0  0  0  0  0  0  0  0  0  0  0  0
   -1.1791   -8.7131    0.0000 C   0  0  0  0  0  0  0  0  0  0  0  0
   -2.0504   -9.9339    0.0000 C   0  0  0  0  0  0  0  0  0  0  0  0
   -1.4289  -11.2990    0.0000 O   0  0  0  0  0  0  0  0  0  0  0  0
   -3.5435   -9.7898    0.0000 C   0  0  0  0  0  0  0  0  0  0  0  0
   -4.4148  -11.0109    0.0000 C   0  0  0  0  0  0  0  0  0  0  0  0
   -5.9079  -10.8666    0.0000 C   0  0  0  0  0  0  0  0  0  0  0  0
   -6.5297   -9.5015    0.0000 C   0  0  0  0  0  0  0  0  0  0  0  0
   -8.0228   -9.3572    0.0000 C   0  0  0  0  0  0  0  0  0  0  0  0
   -8.8941  -10.5782    0.0000 C   0  0  0  0  0  0  0  0  0  0  0  0
   -8.2723  -11.9434    0.0000 C   0  0  0  0  0  0  0  0  0  0  0  0
   -6.7792  -12.0874    0.0000 C   0  0  0  0  0  0  0  0  0  0  0  0
  1  2  1  0  0  0  0
  2  3  1  0  0  0  0
  2  4  1  0  0  0  0
  4  5  1  0  0  0  0
  5  6  2  0  0  0  0
  5  7  1  0  0  0  0
  7  8  1  0  0  0  0
  8  9  1  0  0  0  0
  9 10  1  0  0  0  0
 10 11  2  0  0  0  0
 11 12  1  0  0  0  0
 12 13  1  0  0  0  0
 14 13  1  0  0  0  0
 13 19  1  0  0  0  0
 14 15  1  0  0  0  0
 16 14  1  0  0  0  0
 17 16  1  0  0  0  0
 17 18  1  0  0  0  0
 19 17  1  0  0  0  0
 19 20  1  0  0  0  0
 20 21  1  0  0  0  0
 21 22  1  0  0  0  0
 22 23  1  0  0  0  0
 22 24  1  0  0  0  0
 24 25  1  0  0  0  0
 25 26  1  0  0  0  0
 27 26  2  0  0  0  0
 26 31  1  0  0  0  0
 28 27  1  0  0  0  0
 29 28  2  0  0  0  0
 30 29  1  0  0  0  0
 31 30  2  0  0  0  0
M  END
> <Inchi_key>
GGXICVAJURFBLW-BAQGIRSFSA-N

> <Source>
Mulliner , Kotsampasakou

> <ID>
EK0296;HT1177

> <H_MFHB>
0

> <CAS>


> <Cholestasis>
0

> <Name>
latanoprost

> <Class>
0


$$$$