

  -INDIGO-08031710012D

 30 31  0  0  0  0  0  0  0  0999 V2000
  -10.1695   13.8195    0.0000 O   0  0  0  0  0  0  0  0  0  0  0  0
  -10.1695   12.3195    0.0000 C   0  0  0  0  0  0  0  0  0  0  0  0
   -8.8704   11.5695    0.0000 C   0  0  0  0  0  0  0  0  0  0  0  0
   -7.5712   12.3195    0.0000 C   0  0  0  0  0  0  0  0  0  0  0  0
   -6.2725   11.5695    0.0000 C   0  0  0  0  0  0  0  0  0  0  0  0
   -6.2725   10.0695    0.0000 C   0  0  0  0  0  0  0  0  0  0  0  0
   -7.5712    9.3195    0.0000 C   0  0  0  0  0  0  0  0  0  0  0  0
   -8.8704   10.0695    0.0000 C   0  0  0  0  0  0  0  0  0  0  0  0
  -10.1695    9.3195    0.0000 O   0  0  0  0  0  0  0  0  0  0  0  0
   -4.9733   12.3195    0.0000 C   0  0  0  0  0  0  0  0  0  0  0  0
   -4.9733   13.8195    0.0000 O   0  0  0  0  0  0  0  0  0  0  0  0
   -3.6742   11.5695    0.0000 C   0  0  0  0  0  0  0  0  0  0  0  0
   -2.3751   12.3195    0.0000 N   0  0  0  0  0  0  0  0  0  0  0  0
   -1.0763   11.5695    0.0000 C   0  0  0  0  0  0  0  0  0  0  0  0
    0.2228   12.3195    0.0000 C   0  0  0  0  0  0  0  0  0  0  0  0
    1.5220   11.5695    0.0000 C   0  0  0  0  0  0  0  0  0  0  0  0
    2.8211   12.3195    0.0000 C   0  0  0  0  0  0  0  0  0  0  0  0
    4.1198   11.5695    0.0000 C   0  0  0  0  0  0  0  0  0  0  0  0
    5.4190   12.3195    0.0000 C   0  0  0  0  0  0  0  0  0  0  0  0
    6.7181   11.5695    0.0000 O   0  0  0  0  0  0  0  0  0  0  0  0
    8.0173   12.3195    0.0000 C   0  0  0  0  0  0  0  0  0  0  0  0
    9.3160   11.5695    0.0000 C   0  0  0  0  0  0  0  0  0  0  0  0
   10.6151   12.3195    0.0000 C   0  0  0  0  0  0  0  0  0  0  0  0
   11.9143   11.5695    0.0000 C   0  0  0  0  0  0  0  0  0  0  0  0
   13.2130   12.3195    0.0000 C   0  0  0  0  0  0  0  0  0  0  0  0
   13.2130   13.8195    0.0000 C   0  0  0  0  0  0  0  0  0  0  0  0
   14.5122   14.5695    0.0000 C   0  0  0  0  0  0  0  0  0  0  0  0
   15.8113   13.8195    0.0000 C   0  0  0  0  0  0  0  0  0  0  0  0
   15.8113   12.3195    0.0000 C   0  0  0  0  0  0  0  0  0  0  0  0
   14.5122   11.5695    0.0000 C   0  0  0  0  0  0  0  0  0  0  0  0
  1  2  1  0  0  0  0
  2  3  1  0  0  0  0
  4  3  2  0  0  0  0
  3  8  1  0  0  0  0
  5  4  1  0  0  0  0
  6  5  2  0  0  0  0
  5 10  1  0  0  0  0
  7  6  1  0  0  0  0
  8  7  2  0  0  0  0
  8  9  1  0  0  0  0
 10 11  1  0  0  0  0
 10 12  1  0  0  0  0
 12 13  1  0  0  0  0
 13 14  1  0  0  0  0
 14 15  1  0  0  0  0
 15 16  1  0  0  0  0
 16 17  1  0  0  0  0
 17 18  1  0  0  0  0
 18 19  1  0  0  0  0
 19 20  1  0  0  0  0
 20 21  1  0  0  0  0
 21 22  1  0  0  0  0
 22 23  1  0  0  0  0
 23 24  1  0  0  0  0
 24 25  1  0  0  0  0
 26 25  2  0  0  0  0
 25 30  1  0  0  0  0
 27 26  1  0  0  0  0
 28 27  2  0  0  0  0
 29 28  1  0  0  0  0
 30 29  2  0  0  0  0
M  END
> <Inchi_key>
GIIZNNXWQWCKIB-UHFFFAOYSA-N

> <Source>
Mulliner , Kotsampasakou

> <ID>
EK0477;HT1862

> <H_MFHB>
0

> <CAS>
89365-50-4

> <Cholestasis>
0

> <Name>
salmeterol xinafoate;salmeterol

> <Class>
0


$$$$