
  -INDIGO-08031710012D

 30 34  0  0  0  0  0  0  0  0999 V2000
    2.1521   -2.3976    0.0000 O   0  0  0  0  0  0  0  0  0  0  0  0
    3.2552   -3.4140    0.0000 C   0  0  0  0  0  0  0  0  0  0  0  0
    4.7259   -3.1191    0.0000 N   0  0  0  0  0  0  0  0  0  0  0  0
    3.0811   -4.9040    0.0000 N   0  0  0  0  0  0  0  0  0  0  0  0
    1.7737   -5.6388    0.0000 C   0  0  0  0  0  0  0  0  0  0  0  0
    4.4443   -5.5298    0.0000 C   0  0  0  0  0  0  0  0  0  0  0  0
    0.4833   -4.8739    0.0000 C   0  0  0  0  0  0  0  0  0  0  0  0
    5.4610   -4.4268    0.0000 C   0  0  0  0  0  0  0  0  0  0  0  0
    4.8913   -6.9617    0.0000 C   0  0  0  0  0  0  0  0  0  0  0  0
   -0.8244   -5.6088    0.0000 C   0  0  0  0  0  0  0  0  0  0  0  0
    6.9244   -4.7557    0.0000 C   0  0  0  0  0  0  0  0  0  0  0  0
    6.3550   -7.2905    0.0000 C   0  0  0  0  0  0  0  0  0  0  0  0
   -2.1145   -4.8438    0.0000 N   0  0  0  0  0  0  0  0  0  0  0  0
    7.3714   -6.1874    0.0000 C   0  0  0  0  0  0  0  0  0  0  0  0
   -3.4222   -5.5787    0.0000 C   0  0  0  0  0  0  0  0  0  0  0  0
   -2.0973   -3.3439    0.0000 C   0  0  0  0  0  0  0  0  0  0  0  0
   -4.7124   -4.8138    0.0000 C   0  0  0  0  0  0  0  0  0  0  0  0
   -3.3875   -2.5789    0.0000 C   0  0  0  0  0  0  0  0  0  0  0  0
   -4.6951   -3.3139    0.0000 C   0  0  0  0  0  0  0  0  0  0  0  0
   -5.9853   -2.5489    0.0000 N   0  0  0  0  0  0  0  0  0  0  0  0
   -6.1249   -1.0554    0.0000 C   0  0  0  0  0  0  0  0  0  0  0  0
   -7.3628   -3.1431    0.0000 C   0  0  0  0  0  0  0  0  0  0  0  0
   -4.9987   -0.0647    0.0000 O   0  0  0  0  0  0  0  0  0  0  0  0
   -7.5886   -0.7266    0.0000 N   0  0  0  0  0  0  0  0  0  0  0  0
   -8.3535   -2.0169    0.0000 C   0  0  0  0  0  0  0  0  0  0  0  0
   -7.8428   -4.5642    0.0000 C   0  0  0  0  0  0  0  0  0  0  0  0
   -9.8242   -2.3117    0.0000 C   0  0  0  0  0  0  0  0  0  0  0  0
   -9.3135   -4.8591    0.0000 C   0  0  0  0  0  0  0  0  0  0  0  0
  -10.3042   -3.7329    0.0000 C   0  0  0  0  0  0  0  0  0  0  0  0
  -11.7749   -4.0277    0.0000 Cl  0  0  0  0  0  0  0  0  0  0  0  0
  1  2  2  0  0  0  0
  3  2  1  0  0  0  0
  2  4  1  0  0  0  0
  4  5  1  0  0  0  0
  4  6  1  0  0  0  0
  5  7  1  0  0  0  0
  8  6  2  0  0  0  0
  6  9  1  0  0  0  0
  7 10  1  0  0  0  0
  8  3  1  0  0  0  0
 11  8  1  0  0  0  0
  9 12  2  0  0  0  0
 10 13  1  0  0  0  0
 14 11  2  0  0  0  0
 12 14  1  0  0  0  0
 15 13  1  0  0  0  0
 13 16  1  0  0  0  0
 17 15  1  0  0  0  0
 16 18  1  0  0  0  0
 19 17  1  0  0  0  0
 18 19  1  0  0  0  0
 19 20  1  0  0  0  0
 21 20  1  0  0  0  0
 20 22  1  0  0  0  0
 21 23  2  0  0  0  0
 24 21  1  0  0  0  0
 25 22  2  0  0  0  0
 22 26  1  0  0  0  0
 25 24  1  0  0  0  0
 27 25  1  0  0  0  0
 26 28  2  0  0  0  0
 29 27  2  0  0  0  0
 28 29  1  0  0  0  0
 29 30  1  0  0  0  0
M  END
> <Inchi_key>
FGXWKSZFVQUSTL-UHFFFAOYSA-N

> <Source>
Mulliner

> <ID>
HT0707

> <H_MFHB>
0

> <CAS>


> <Cholestasis>


> <Name>
domperidone

> <Class>
0

$$$$