

  -INDIGO-08031709442D

 34 35  0  0  0  0  0  0  0  0999 V2000
   -5.2697   -5.2697    0.0000 I   0  0  0  0  0  0  0  0  0  0  0  0
   -5.2697   -6.7697    0.0000 C   0  0  0  0  0  0  0  0  0  0  0  0
   -6.5687   -7.5197    0.0000 C   0  0  0  0  0  0  0  0  0  0  0  0
   -7.8678   -6.7697    0.0000 C   0  0  0  0  0  0  0  0  0  0  0  0
   -7.8678   -5.2697    0.0000 O   0  0  0  0  0  0  0  0  0  0  0  0
   -9.1668   -7.5197    0.0000 O   0  0  0  0  0  0  0  0  0  0  0  0
   -6.5687   -9.0197    0.0000 C   0  0  0  0  0  0  0  0  0  0  0  0
   -7.8678   -9.7697    0.0000 I   0  0  0  0  0  0  0  0  0  0  0  0
   -5.2697   -9.7697    0.0000 C   0  0  0  0  0  0  0  0  0  0  0  0
   -3.9707   -9.0197    0.0000 C   0  0  0  0  0  0  0  0  0  0  0  0
   -2.6716   -9.7697    0.0000 I   0  0  0  0  0  0  0  0  0  0  0  0
   -3.9707   -7.5197    0.0000 C   0  0  0  0  0  0  0  0  0  0  0  0
   -2.6716   -6.7697    0.0000 N   0  0  0  0  0  0  0  0  0  0  0  0
   -1.3726   -7.5197    0.0000 C   0  0  0  0  0  0  0  0  0  0  0  0
   -1.3726   -9.0197    0.0000 O   0  0  0  0  0  0  0  0  0  0  0  0
   -0.0736   -6.7697    0.0000 C   0  0  0  0  0  0  0  0  0  0  0  0
    1.2255   -7.5197    0.0000 C   0  0  0  0  0  0  0  0  0  0  0  0
    2.5245   -6.7697    0.0000 C   0  0  0  0  0  0  0  0  0  0  0  0
    3.8236   -7.5197    0.0000 C   0  0  0  0  0  0  0  0  0  0  0  0
    5.1226   -6.7697    0.0000 C   0  0  0  0  0  0  0  0  0  0  0  0
    5.1226   -5.2697    0.0000 O   0  0  0  0  0  0  0  0  0  0  0  0
    6.4216   -7.5197    0.0000 N   0  0  0  0  0  0  0  0  0  0  0  0
    7.7207   -6.7697    0.0000 C   0  0  0  0  0  0  0  0  0  0  0  0
    9.0197   -7.5197    0.0000 C   0  0  0  0  0  0  0  0  0  0  0  0
    9.0197   -9.0197    0.0000 I   0  0  0  0  0  0  0  0  0  0  0  0
   10.3187   -6.7697    0.0000 C   0  0  0  0  0  0  0  0  0  0  0  0
   11.6178   -7.5197    0.0000 C   0  0  0  0  0  0  0  0  0  0  0  0
   12.9168   -6.7697    0.0000 O   0  0  0  0  0  0  0  0  0  0  0  0
   11.6178   -9.0197    0.0000 O   0  0  0  0  0  0  0  0  0  0  0  0
   10.3187   -5.2697    0.0000 C   0  0  0  0  0  0  0  0  0  0  0  0
   11.6178   -4.5197    0.0000 I   0  0  0  0  0  0  0  0  0  0  0  0
    9.0197   -4.5197    0.0000 C   0  0  0  0  0  0  0  0  0  0  0  0
    7.7207   -5.2697    0.0000 C   0  0  0  0  0  0  0  0  0  0  0  0
    6.4216   -4.5197    0.0000 I   0  0  0  0  0  0  0  0  0  0  0  0
  1  2  1  0  0  0  0
  3  2  2  0  0  0  0
  2 12  1  0  0  0  0
  3  4  1  0  0  0  0
  7  3  1  0  0  0  0
  4  5  1  0  0  0  0
  4  6  2  0  0  0  0
  7  8  1  0  0  0  0
  9  7  2  0  0  0  0
 10  9  1  0  0  0  0
 10 11  1  0  0  0  0
 12 10  2  0  0  0  0
 12 13  1  0  0  0  0
 13 14  1  0  0  0  0
 14 15  2  0  0  0  0
 14 16  1  0  0  0  0
 16 17  1  0  0  0  0
 17 18  1  0  0  0  0
 18 19  1  0  0  0  0
 19 20  1  0  0  0  0
 20 21  2  0  0  0  0
 20 22  1  0  0  0  0
 22 23  1  0  0  0  0
 24 23  2  0  0  0  0
 23 33  1  0  0  0  0
 24 25  1  0  0  0  0
 26 24  1  0  0  0  0
 26 27  1  0  0  0  0
 30 26  2  0  0  0  0
 27 28  1  0  0  0  0
 27 29  2  0  0  0  0
 30 31  1  0  0  0  0
 32 30  1  0  0  0  0
 33 32  2  0  0  0  0
 33 34  1  0  0  0  0
M  END
> <Inchi_key>
FFINMCNLQNTKLU-UHFFFAOYSA-N

> <Source>
Kotsampasakou

> <ID>
EK0271

> <H_MFHB>


> <CAS>


> <Cholestasis>
0

> <Name>
iodipamide

> <Class>
0


$$$$