

  -INDIGO-08031710012D

 28 30  0  0  0  0  0  0  0  0999 V2000
   -0.7518   -8.9556    0.0000 C   0  0  0  0  0  0  0  0  0  0  0  0
   -0.0019   -7.6566    0.0000 C   0  0  0  0  0  0  0  0  0  0  0  0
   -0.7518   -6.3576    0.0000 O   0  0  0  0  0  0  0  0  0  0  0  0
    1.4982   -7.6566    0.0000 O   0  0  0  0  0  0  0  0  0  0  0  0
    2.2482   -6.3576    0.0000 C   0  0  0  0  0  0  0  0  0  0  0  0
    3.7483   -6.3576    0.0000 C   0  0  0  0  0  0  0  0  0  0  0  0
    4.4982   -5.0585    0.0000 C   0  0  0  0  0  0  0  0  0  0  0  0
    5.9983   -5.0585    0.0000 N   0  0  0  0  0  0  0  0  0  0  0  0
    6.7482   -6.3576    0.0000 C   0  0  0  0  0  0  0  0  0  0  0  0
    5.9983   -7.6566    0.0000 S   0  0  0  0  0  0  0  0  0  0  0  0
    4.4982   -7.6566    0.0000 C   0  0  0  0  0  0  0  0  0  0  0  0
    8.0472   -5.6076    0.0000 C   0  0  0  0  0  0  0  0  0  0  0  0
    9.4960   -5.9958    0.0000 N   0  0  0  0  0  0  0  0  0  0  0  0
   10.5569   -4.9351    0.0000 C   0  0  0  0  0  0  0  0  0  0  0  0
   10.1685   -3.4862    0.0000 O   0  0  0  0  0  0  0  0  0  0  0  0
   12.0057   -5.3234    0.0000 C   0  0  0  0  0  0  0  0  0  0  0  0
   12.3938   -6.7723    0.0000 N   0  0  0  0  0  0  0  0  0  0  0  0
   13.0663   -4.2627    0.0000 C   0  0  0  0  0  0  0  0  0  0  0  0
   12.6781   -2.8138    0.0000 C   0  0  0  0  0  0  0  0  0  0  0  0
   13.7387   -1.7532    0.0000 C   0  0  0  0  0  0  0  0  0  0  0  0
   15.1875   -2.1414    0.0000 C   0  0  0  0  0  0  0  0  0  0  0  0
   15.5759   -3.5903    0.0000 C   0  0  0  0  0  0  0  0  0  0  0  0
   14.5153   -4.6509    0.0000 C   0  0  0  0  0  0  0  0  0  0  0  0
    7.2973   -4.3085    0.0000 C   0  0  0  0  0  0  0  0  0  0  0  0
    7.6855   -2.8596    0.0000 O   0  0  0  0  0  0  0  0  0  0  0  0
    3.7483   -3.7595    0.0000 C   0  0  0  0  0  0  0  0  0  0  0  0
    4.4982   -2.4605    0.0000 O   0  0  0  0  0  0  0  0  0  0  0  0
    2.2482   -3.7595    0.0000 O   0  0  0  0  0  0  0  0  0  0  0  0
  1  2  1  0  0  0  0
  2  3  2  0  0  0  0
  2  4  1  0  0  0  0
  4  5  1  0  0  0  0
  5  6  1  0  0  0  0
  7  6  2  0  0  0  0
  6 11  1  0  0  0  0
  8  7  1  0  0  0  0
  7 26  1  0  0  0  0
  8  9  1  0  0  0  0
 24  8  1  0  0  0  0
 10  9  1  0  0  0  0
  9 12  1  0  0  0  0
 11 10  1  0  0  0  0
 12 13  1  0  0  0  0
 12 24  1  0  0  0  0
 13 14  1  0  0  0  0
 14 15  2  0  0  0  0
 14 16  1  0  0  0  0
 16 17  1  0  0  0  0
 16 18  1  0  0  0  0
 19 18  2  0  0  0  0
 18 23  1  0  0  0  0
 20 19  1  0  0  0  0
 21 20  2  0  0  0  0
 22 21  1  0  0  0  0
 23 22  2  0  0  0  0
 24 25  2  0  0  0  0
 26 27  2  0  0  0  0
 26 28  1  0  0  0  0
M  END
> <Inchi_key>
FUBBGQLTSCSAON-UHFFFAOYSA-N

> <Source>
Mulliner

> <ID>
HT0432

> <H_MFHB>
0

> <CAS>


> <Cholestasis>


> <Name>
cephaloglycin

> <Class>
0


$$$$