

  -INDIGO-08031710012D

 24 26  0  0  0  0  0  0  0  0999 V2000
   11.9943   -5.6463    0.0000 C   0  0  0  0  0  0  0  0  0  0  0  0
   10.6673   -6.3455    0.0000 C   0  0  0  0  0  0  0  0  0  0  0  0
    9.3982   -5.5459    0.0000 O   0  0  0  0  0  0  0  0  0  0  0  0
    8.0712   -6.2453    0.0000 C   0  0  0  0  0  0  0  0  0  0  0  0
    8.0132   -7.7441    0.0000 O   0  0  0  0  0  0  0  0  0  0  0  0
    6.8022   -5.4457    0.0000 C   0  0  0  0  0  0  0  0  0  0  0  0
    5.5775   -6.3120    0.0000 O   0  0  0  0  0  0  0  0  0  0  0  0
    4.0990   -6.0589    0.0000 C   0  0  0  0  0  0  0  0  0  0  0  0
    3.4721   -7.4216    0.0000 C   0  0  0  0  0  0  0  0  0  0  0  0
    1.9785   -7.5598    0.0000 C   0  0  0  0  0  0  0  0  0  0  0  0
    1.1119   -6.3355    0.0000 C   0  0  0  0  0  0  0  0  0  0  0  0
   -0.3817   -6.4737    0.0000 Cl  0  0  0  0  0  0  0  0  0  0  0  0
    1.7390   -4.9727    0.0000 C   0  0  0  0  0  0  0  0  0  0  0  0
    3.2326   -4.8345    0.0000 C   0  0  0  0  0  0  0  0  0  0  0  0
    3.4857   -3.3561    0.0000 C   0  0  0  0  0  0  0  0  0  0  0  0
    2.2166   -2.5563    0.0000 C   0  0  0  0  0  0  0  0  0  0  0  0
    4.7101   -2.4896    0.0000 C   0  0  0  0  0  0  0  0  0  0  0  0
    4.1901   -1.0825    0.0000 C   0  0  0  0  0  0  0  0  0  0  0  0
    5.1485    0.0712    0.0000 C   0  0  0  0  0  0  0  0  0  0  0  0
    4.6286    1.4782    0.0000 Cl  0  0  0  0  0  0  0  0  0  0  0  0
    6.6269   -0.1818    0.0000 C   0  0  0  0  0  0  0  0  0  0  0  0
    7.1470   -1.5889    0.0000 C   0  0  0  0  0  0  0  0  0  0  0  0
    6.1886   -2.7427    0.0000 C   0  0  0  0  0  0  0  0  0  0  0  0
    7.0550   -3.9671    0.0000 O   0  0  0  0  0  0  0  0  0  0  0  0
  1  2  1  0  0  0  0
  2  3  1  0  0  0  0
  3  4  1  0  0  0  0
  4  5  2  0  0  0  0
  4  6  1  0  0  0  0
  7  6  1  0  0  0  0
  6 24  1  0  0  0  0
  8  7  1  0  0  0  0
  9  8  1  0  0  0  0
  8 14  2  0  0  0  0
 10  9  2  0  0  0  0
 11 10  1  0  0  0  0
 11 12  1  0  0  0  0
 13 11  2  0  0  0  0
 14 13  1  0  0  0  0
 15 14  1  0  0  0  0
 15 16  1  0  0  0  0
 17 15  1  0  0  0  0
 18 17  1  0  0  0  0
 17 23  2  0  0  0  0
 19 18  2  0  0  0  0
 19 20  1  0  0  0  0
 21 19  1  0  0  0  0
 22 21  2  0  0  0  0
 23 22  1  0  0  0  0
 24 23  1  0  0  0  0
M  END
> <Inchi_key>
GIGXYLNNCMPCGM-UHFFFAOYSA-N

> <Source>
Mulliner

> <ID>
HT1711

> <H_MFHB>
0

> <CAS>
53341-49-4

> <Cholestasis>


> <Name>
ponfibrate

> <Class>
0


$$$$