

  -INDIGO-08031710012D

 13 13  0  0  0  0  0  0  0  0999 V2000
    8.3507   -0.1607    0.0000 C   0  0  0  0  0  0  0  0  0  0  0  0
    7.0517   -0.9107    0.0000 C   0  0  0  0  0  0  0  0  0  0  0  0
    7.0517   -2.4107    0.0000 N   0  0  0  0  0  0  0  0  0  0  0  0
    5.7528   -0.1607    0.0000 C   0  0  0  0  0  0  0  0  0  0  0  0
    5.7528    1.3393    0.0000 O   0  0  0  0  0  0  0  0  0  0  0  0
    4.4535   -0.9107    0.0000 C   0  0  0  0  0  0  0  0  0  0  0  0
    4.4535   -2.4107    0.0000 C   0  0  0  0  0  0  0  0  0  0  0  0
    3.1546   -3.1607    0.0000 C   0  0  0  0  0  0  0  0  0  0  0  0
    1.8555   -2.4107    0.0000 C   0  0  0  0  0  0  0  0  0  0  0  0
    0.5565   -3.1607    0.0000 O   0  0  0  0  0  0  0  0  0  0  0  0
    1.8555   -0.9107    0.0000 C   0  0  0  0  0  0  0  0  0  0  0  0
    0.5565   -0.1607    0.0000 O   0  0  0  0  0  0  0  0  0  0  0  0
    3.1546   -0.1607    0.0000 C   0  0  0  0  0  0  0  0  0  0  0  0
  1  2  1  0  0  0  0
  2  3  1  0  0  0  0
  2  4  1  0  0  0  0
  4  5  1  0  0  0  0
  4  6  1  0  0  0  0
  7  6  2  0  0  0  0
  6 13  1  0  0  0  0
  8  7  1  0  0  0  0
  9  8  2  0  0  0  0
  9 10  1  0  0  0  0
 11  9  1  0  0  0  0
 11 12  1  0  0  0  0
 13 11  2  0  0  0  0
M  END
> <Inchi_key>
GEFQWZLICWMTKF-UHFFFAOYSA-N

> <Source>
Mulliner

> <ID>
HT1199

> <H_MFHB>
0

> <CAS>


> <Cholestasis>


> <Name>
levonordefrin

> <Class>
0


$$$$