

  -INDIGO-08031710012D

  9  8  0  0  0  0  0  0  0  0999 V2000
    8.2468   -1.5431    0.0000 C   0  0  0  0  0  0  0  0  0  0  0  0
    6.9478   -2.2931    0.0000 S   0  0  0  0  0  0  0  0  0  0  0  0
    5.6487   -1.5431    0.0000 C   0  0  0  0  0  0  0  0  0  0  0  0
    4.3496   -2.2931    0.0000 C   0  0  0  0  0  0  0  0  0  0  0  0
    3.0505   -1.5431    0.0000 C   0  0  0  0  0  0  0  0  0  0  0  0
    3.0505   -0.0431    0.0000 N   0  0  0  0  0  0  0  0  0  0  0  0
    1.7516   -2.2931    0.0000 C   0  0  0  0  0  0  0  0  0  0  0  0
    1.7516   -3.7931    0.0000 O   0  0  0  0  0  0  0  0  0  0  0  0
    0.4526   -1.5431    0.0000 O   0  0  0  0  0  0  0  0  0  0  0  0
  1  2  1  0  0  0  0
  2  3  1  0  0  0  0
  3  4  1  0  0  0  0
  4  5  1  0  0  0  0
  5  6  1  0  0  0  0
  5  7  1  0  0  0  0
  7  8  2  0  0  0  0
  7  9  1  0  0  0  0
M  END
> <Inchi_key>
FFEARJCKVFRZRR-UHFFFAOYSA-N

> <Source>
Mulliner

> <ID>
HT1225

> <H_MFHB>
0

> <CAS>
59-51-8;63-68-3

> <Cholestasis>


> <Name>
l-methionine;methionine

> <Class>
0


$$$$