

  -INDIGO-08031710012D

 27 29  0  0  0  0  0  0  0  0999 V2000
   -0.6853   -3.2024    0.0000 C   0  0  0  0  0  0  0  0  0  0  0  0
    0.6137   -2.4524    0.0000 C   0  0  0  0  0  0  0  0  0  0  0  0
    1.9128   -3.2024    0.0000 C   0  0  0  0  0  0  0  0  0  0  0  0
    1.9128   -4.7025    0.0000 O   0  0  0  0  0  0  0  0  0  0  0  0
    3.2118   -2.4524    0.0000 N   0  0  0  0  0  0  0  0  0  0  0  0
    3.2118   -0.9524    0.0000 C   0  0  0  0  0  0  0  0  0  0  0  0
    1.9128   -0.2024    0.0000 C   0  0  0  0  0  0  0  0  0  0  0  0
    1.9128    1.2976    0.0000 C   0  0  0  0  0  0  0  0  0  0  0  0
    3.2118    2.0476    0.0000 C   0  0  0  0  0  0  0  0  0  0  0  0
    4.5110    1.2976    0.0000 C   0  0  0  0  0  0  0  0  0  0  0  0
    4.5110   -0.2024    0.0000 C   0  0  0  0  0  0  0  0  0  0  0  0
    4.5110   -3.2024    0.0000 C   0  0  0  0  0  0  0  0  0  0  0  0
    3.2118   -3.9524    0.0000 C   0  0  0  0  0  0  0  0  0  0  0  0
    3.2118   -5.4524    0.0000 O   0  0  0  0  0  0  0  0  0  0  0  0
    1.9128   -6.2024    0.0000 C   0  0  0  0  0  0  0  0  0  0  0  0
    5.2609   -1.9034    0.0000 C   0  0  0  0  0  0  0  0  0  0  0  0
    6.7609   -1.9034    0.0000 C   0  0  0  0  0  0  0  0  0  0  0  0
    7.5108   -3.2024    0.0000 N   0  0  0  0  0  0  0  0  0  0  0  0
    9.0110   -3.2024    0.0000 C   0  0  0  0  0  0  0  0  0  0  0  0
    9.7610   -4.5014    0.0000 C   0  0  0  0  0  0  0  0  0  0  0  0
   11.2609   -4.5014    0.0000 C   0  0  0  0  0  0  0  0  0  0  0  0
   12.1425   -3.2879    0.0000 C   0  0  0  0  0  0  0  0  0  0  0  0
   13.5691   -3.7514    0.0000 C   0  0  0  0  0  0  0  0  0  0  0  0
   13.5691   -5.2515    0.0000 C   0  0  0  0  0  0  0  0  0  0  0  0
   12.1425   -5.7150    0.0000 S   0  0  0  0  0  0  0  0  0  0  0  0
    6.7609   -4.5014    0.0000 C   0  0  0  0  0  0  0  0  0  0  0  0
    5.2609   -4.5014    0.0000 C   0  0  0  0  0  0  0  0  0  0  0  0
  1  2  1  0  0  0  0
  2  3  1  0  0  0  0
  3  4  2  0  0  0  0
  3  5  1  0  0  0  0
  5  6  1  0  0  0  0
  5 12  1  0  0  0  0
  7  6  2  0  0  0  0
  6 11  1  0  0  0  0
  8  7  1  0  0  0  0
  9  8  2  0  0  0  0
 10  9  1  0  0  0  0
 11 10  2  0  0  0  0
 12 13  1  0  0  0  0
 16 12  1  0  0  0  0
 12 27  1  0  0  0  0
 13 14  1  0  0  0  0
 14 15  1  0  0  0  0
 17 16  1  0  0  0  0
 18 17  1  0  0  0  0
 18 19  1  0  0  0  0
 26 18  1  0  0  0  0
 19 20  1  0  0  0  0
 20 21  1  0  0  0  0
 22 21  2  0  0  0  0
 21 25  1  0  0  0  0
 23 22  1  0  0  0  0
 24 23  2  0  0  0  0
 25 24  1  0  0  0  0
 27 26  1  0  0  0  0
M  END
> <Inchi_key>
GGCSSNBKKAUURC-UHFFFAOYSA-N

> <Source>
Mulliner , Kotsampasakou

> <ID>
EK0490;HT1928

> <H_MFHB>
0

> <CAS>


> <Cholestasis>
0

> <Name>
sufentanil citrate;sufentanil

> <Class>
0


$$$$