

  -INDIGO-08031710012D

 34 35  0  0  0  0  0  0  0  0999 V2000
   28.5394    7.6471    0.0000 Cl  0  0  0  0  0  0  0  0  0  0  0  0
   27.2402    6.8971    0.0000 C   0  0  0  0  0  0  0  0  0  0  0  0
   27.2402    5.3972    0.0000 C   0  0  0  0  0  0  0  0  0  0  0  0
   25.9415    4.6470    0.0000 C   0  0  0  0  0  0  0  0  0  0  0  0
   24.6423    5.3972    0.0000 C   0  0  0  0  0  0  0  0  0  0  0  0
   23.3432    4.6470    0.0000 N   0  0  0  0  0  0  0  0  0  0  0  0
   22.0440    5.3972    0.0000 C   0  0  0  0  0  0  0  0  0  0  0  0
   22.0440    6.8971    0.0000 N   0  0  0  0  0  0  0  0  0  0  0  0
   20.7453    4.6470    0.0000 N   0  0  0  0  0  0  0  0  0  0  0  0
   19.4461    5.3972    0.0000 C   0  0  0  0  0  0  0  0  0  0  0  0
   19.4461    6.8971    0.0000 N   0  0  0  0  0  0  0  0  0  0  0  0
   18.1470    4.6470    0.0000 N   0  0  0  0  0  0  0  0  0  0  0  0
   16.8482    5.3972    0.0000 C   0  0  0  0  0  0  0  0  0  0  0  0
   15.5491    4.6470    0.0000 C   0  0  0  0  0  0  0  0  0  0  0  0
   14.2499    5.3972    0.0000 C   0  0  0  0  0  0  0  0  0  0  0  0
   12.9512    4.6470    0.0000 C   0  0  0  0  0  0  0  0  0  0  0  0
   11.6520    5.3972    0.0000 C   0  0  0  0  0  0  0  0  0  0  0  0
   10.3529    4.6470    0.0000 C   0  0  0  0  0  0  0  0  0  0  0  0
    9.0537    5.3972    0.0000 N   0  0  0  0  0  0  0  0  0  0  0  0
    7.7550    4.6470    0.0000 C   0  0  0  0  0  0  0  0  0  0  0  0
    6.4558    5.3972    0.0000 N   0  0  0  0  0  0  0  0  0  0  0  0
    7.7550    3.1471    0.0000 N   0  0  0  0  0  0  0  0  0  0  0  0
    6.4558    2.3971    0.0000 C   0  0  0  0  0  0  0  0  0  0  0  0
    5.1567    3.1471    0.0000 N   0  0  0  0  0  0  0  0  0  0  0  0
    6.4558    0.8972    0.0000 N   0  0  0  0  0  0  0  0  0  0  0  0
    5.1567    0.1470    0.0000 C   0  0  0  0  0  0  0  0  0  0  0  0
    5.1567   -1.3529    0.0000 C   0  0  0  0  0  0  0  0  0  0  0  0
    3.8575   -2.1029    0.0000 C   0  0  0  0  0  0  0  0  0  0  0  0
    2.5588   -1.3529    0.0000 C   0  0  0  0  0  0  0  0  0  0  0  0
    1.2596   -2.1029    0.0000 Cl  0  0  0  0  0  0  0  0  0  0  0  0
    2.5588    0.1470    0.0000 C   0  0  0  0  0  0  0  0  0  0  0  0
    3.8575    0.8972    0.0000 C   0  0  0  0  0  0  0  0  0  0  0  0
   24.6423    6.8971    0.0000 C   0  0  0  0  0  0  0  0  0  0  0  0
   25.9415    7.6471    0.0000 C   0  0  0  0  0  0  0  0  0  0  0  0
  1  2  1  0  0  0  0
  3  2  2  0  0  0  0
  2 34  1  0  0  0  0
  4  3  1  0  0  0  0
  5  4  2  0  0  0  0
  5  6  1  0  0  0  0
 33  5  1  0  0  0  0
  6  7  1  0  0  0  0
  7  8  2  0  0  0  0
  7  9  1  0  0  0  0
  9 10  1  0  0  0  0
 10 11  2  0  0  0  0
 10 12  1  0  0  0  0
 12 13  1  0  0  0  0
 13 14  1  0  0  0  0
 14 15  1  0  0  0  0
 15 16  1  0  0  0  0
 16 17  1  0  0  0  0
 17 18  1  0  0  0  0
 18 19  1  0  0  0  0
 19 20  1  0  0  0  0
 20 21  2  0  0  0  0
 20 22  1  0  0  0  0
 22 23  1  0  0  0  0
 23 24  2  0  0  0  0
 23 25  1  0  0  0  0
 25 26  1  0  0  0  0
 27 26  2  0  0  0  0
 26 32  1  0  0  0  0
 28 27  1  0  0  0  0
 29 28  2  0  0  0  0
 29 30  1  0  0  0  0
 31 29  1  0  0  0  0
 32 31  2  0  0  0  0
 34 33  2  0  0  0  0
M  END
> <Inchi_key>
GHXZTYHSJHQHIJ-UHFFFAOYSA-N

> <Source>
Mulliner , Kotsampasakou

> <ID>
EK0116;HT0452

> <H_MFHB>
0

> <CAS>


> <Cholestasis>
0

> <Name>
chlorhexidine;chlorhexidine gluconate

> <Class>
0


$$$$