
  -INDIGO-08031710012D

 24 25  0  0  0  0  0  0  0  0999 V2000
   22.9693    6.1834    0.0000 C   0  0  0  0  0  0  0  0  0  0  0  0
   21.6702    6.9334    0.0000 C   0  0  0  0  0  0  0  0  0  0  0  0
   20.3711    6.1834    0.0000 C   0  0  0  0  0  0  0  0  0  0  0  0
   19.0722    6.9334    0.0000 C   0  0  0  0  0  0  0  0  0  0  0  0
   17.7731    6.1834    0.0000 O   0  0  0  0  0  0  0  0  0  0  0  0
   16.4740    6.9334    0.0000 C   0  0  0  0  0  0  0  0  0  0  0  0
   15.1752    6.1834    0.0000 C   0  0  0  0  0  0  0  0  0  0  0  0
   13.8761    6.9334    0.0000 O   0  0  0  0  0  0  0  0  0  0  0  0
   12.5770    6.1834    0.0000 C   0  0  0  0  0  0  0  0  0  0  0  0
   11.2781    6.9334    0.0000 C   0  0  0  0  0  0  0  0  0  0  0  0
    9.9790    6.1834    0.0000 O   0  0  0  0  0  0  0  0  0  0  0  0
    8.6799    6.9334    0.0000 C   0  0  0  0  0  0  0  0  0  0  0  0
    7.3808    6.1834    0.0000 C   0  0  0  0  0  0  0  0  0  0  0  0
    7.3808    4.6835    0.0000 C   0  0  0  0  0  0  0  0  0  0  0  0
    6.0817    3.9334    0.0000 C   0  0  0  0  0  0  0  0  0  0  0  0
    5.7701    2.4661    0.0000 O   0  0  0  0  0  0  0  0  0  0  0  0
    4.2783    2.3093    0.0000 C   0  0  0  0  0  0  0  0  0  0  0  0
    3.6681    3.6797    0.0000 O   0  0  0  0  0  0  0  0  0  0  0  0
    4.7828    4.6835    0.0000 C   0  0  0  0  0  0  0  0  0  0  0  0
    4.7828    6.1834    0.0000 C   0  0  0  0  0  0  0  0  0  0  0  0
    6.0817    6.9334    0.0000 C   0  0  0  0  0  0  0  0  0  0  0  0
    6.0817    8.4334    0.0000 C   0  0  0  0  0  0  0  0  0  0  0  0
    4.7828    9.1834    0.0000 C   0  0  0  0  0  0  0  0  0  0  0  0
    4.7828   10.6834    0.0000 C   0  0  0  0  0  0  0  0  0  0  0  0
  1  2  1  0  0  0  0
  2  3  1  0  0  0  0
  3  4  1  0  0  0  0
  4  5  1  0  0  0  0
  5  6  1  0  0  0  0
  6  7  1  0  0  0  0
  7  8  1  0  0  0  0
  8  9  1  0  0  0  0
  9 10  1  0  0  0  0
 10 11  1  0  0  0  0
 11 12  1  0  0  0  0
 12 13  1  0  0  0  0
 14 13  2  0  0  0  0
 13 21  1  0  0  0  0
 15 14  1  0  0  0  0
 16 15  1  0  0  0  0
 15 19  2  0  0  0  0
 17 16  1  0  0  0  0
 18 17  1  0  0  0  0
 19 18  1  0  0  0  0
 20 19  1  0  0  0  0
 21 20  2  0  0  0  0
 21 22  1  0  0  0  0
 22 23  1  0  0  0  0
 23 24  1  0  0  0  0
M  END
> <Inchi_key>
FIPWRIJSWJWJAI-UHFFFAOYSA-N

> <Source>
Mulliner , Kotsampasakou

> <ID>
EK0429;HT1684

> <H_MFHB>
0

> <CAS>
3/6/1951

> <Cholestasis>
0

> <Name>
piperonyl butoxide

> <Class>
0

$$$$