
  -INDIGO-08031710012D

 13 12  0  0  0  0  0  0  0  0999 V2000
   -3.6652   -3.6652    0.0000 O   0  0  0  0  0  0  0  0  0  0  0  0
   -3.6652   -5.1652    0.0000 C   0  0  0  0  0  0  0  0  0  0  0  0
   -4.9643   -5.9152    0.0000 O   0  0  0  0  0  0  0  0  0  0  0  0
   -2.3661   -5.9152    0.0000 C   0  0  0  0  0  0  0  0  0  0  0  0
   -1.0672   -5.1652    0.0000 C   0  0  0  0  0  0  0  0  0  0  0  0
    0.2319   -5.9152    0.0000 C   0  0  0  0  0  0  0  0  0  0  0  0
    1.5310   -5.1652    0.0000 C   0  0  0  0  0  0  0  0  0  0  0  0
    2.8301   -5.9152    0.0000 C   0  0  0  0  0  0  0  0  0  0  0  0
    4.1289   -5.1652    0.0000 C   0  0  0  0  0  0  0  0  0  0  0  0
    5.4280   -5.9152    0.0000 C   0  0  0  0  0  0  0  0  0  0  0  0
    6.7271   -5.1652    0.0000 C   0  0  0  0  0  0  0  0  0  0  0  0
    8.0260   -5.9152    0.0000 C   0  0  0  0  0  0  0  0  0  0  0  0
    9.3251   -5.1652    0.0000 C   0  0  0  0  0  0  0  0  0  0  0  0
  1  2  1  0  0  0  0
  2  3  2  0  0  0  0
  2  4  1  0  0  0  0
  4  5  1  0  0  0  0
  5  6  1  0  0  0  0
  6  7  1  0  0  0  0
  7  8  1  0  0  0  0
  8  9  1  0  0  0  0
  9 10  1  0  0  0  0
 10 11  1  0  0  0  0
 11 12  1  0  0  0  0
 12 13  2  0  0  0  0
M  END
> <Inchi_key>
FRPZMMHWLSIFAZ-UHFFFAOYSA-N

> <Source>
Mulliner

> <ID>
HT2797

> <H_MFHB>
0

> <CAS>


> <Cholestasis>


> <Name>


> <Class>
0

$$$$