
  -INDIGO-08031710012D

 23 26  0  0  0  0  0  0  0  0999 V2000
    4.7613   -0.1300    0.0000 O   0  0  0  0  0  0  0  0  0  0  0  0
    4.7613    1.3700    0.0000 C   0  0  0  0  0  0  0  0  0  0  0  0
    6.0604    2.1200    0.0000 C   0  0  0  0  0  0  0  0  0  0  0  0
    6.0604    3.6200    0.0000 C   0  0  0  0  0  0  0  0  0  0  0  0
    7.3595    4.3700    0.0000 C   0  0  0  0  0  0  0  0  0  0  0  0
    8.6584    3.6200    0.0000 C   0  0  0  0  0  0  0  0  0  0  0  0
    8.6584    2.1200    0.0000 C   0  0  0  0  0  0  0  0  0  0  0  0
    7.3595    1.3700    0.0000 C   0  0  0  0  0  0  0  0  0  0  0  0
    3.4624    2.1200    0.0000 N   0  0  0  0  0  0  0  0  0  0  0  0
    2.1633    1.3700    0.0000 C   0  0  0  0  0  0  0  0  0  0  0  0
    0.8642    2.1200    0.0000 C   0  0  0  0  0  0  0  0  0  0  0  0
    0.8642    3.6200    0.0000 N   0  0  0  0  0  0  0  0  0  0  0  0
   -0.4347    4.3700    0.0000 C   0  0  0  0  0  0  0  0  0  0  0  0
   -1.7340    3.6200    0.0000 C   0  0  0  0  0  0  0  0  0  0  0  0
   -1.7340    2.1200    0.0000 C   0  0  0  0  0  0  0  0  0  0  0  0
   -3.0329    1.3700    0.0000 C   0  0  0  0  0  0  0  0  0  0  0  0
   -3.0329   -0.1300    0.0000 C   0  0  0  0  0  0  0  0  0  0  0  0
   -1.7340   -0.8800    0.0000 C   0  0  0  0  0  0  0  0  0  0  0  0
   -0.4347   -0.1300    0.0000 C   0  0  0  0  0  0  0  0  0  0  0  0
   -0.4347    1.3700    0.0000 C   0  0  0  0  0  0  0  0  0  0  0  0
    2.1633    4.3700    0.0000 C   0  0  0  0  0  0  0  0  0  0  0  0
    2.1633    5.8700    0.0000 O   0  0  0  0  0  0  0  0  0  0  0  0
    3.4624    3.6200    0.0000 C   0  0  0  0  0  0  0  0  0  0  0  0
  1  2  2  0  0  0  0
  2  3  1  0  0  0  0
  2  9  1  0  0  0  0
  4  3  1  0  0  0  0
  3  8  1  0  0  0  0
  5  4  1  0  0  0  0
  6  5  1  0  0  0  0
  7  6  1  0  0  0  0
  8  7  1  0  0  0  0
 10  9  1  0  0  0  0
  9 23  1  0  0  0  0
 11 10  1  0  0  0  0
 11 12  1  0  0  0  0
 20 11  1  0  0  0  0
 12 13  1  0  0  0  0
 21 12  1  0  0  0  0
 13 14  1  0  0  0  0
 14 15  1  0  0  0  0
 16 15  2  0  0  0  0
 15 20  1  0  0  0  0
 17 16  1  0  0  0  0
 18 17  2  0  0  0  0
 19 18  1  0  0  0  0
 20 19  2  0  0  0  0
 21 22  2  0  0  0  0
 23 21  1  0  0  0  0
M  END
> <Inchi_key>
FSVJFNAIGNNGKK-UHFFFAOYSA-N

> <Source>
Mulliner , Kotsampasakou

> <ID>
EK0436;HT1727

> <H_MFHB>
0

> <CAS>


> <Cholestasis>
0

> <Name>
praziquantel

> <Class>
0

$$$$