

  -INDIGO-08031710012D

 14 14  0  0  0  0  0  0  0  0999 V2000
    4.4970    1.5925    0.0000 C   0  0  0  0  0  0  0  0  0  0  0  0
    3.3313    0.6485    0.0000 N   0  0  0  0  0  0  0  0  0  0  0  0
    1.8824    1.0367    0.0000 N   0  0  0  0  0  0  0  0  0  0  0  0
    1.0655   -0.2213    0.0000 C   0  0  0  0  0  0  0  0  0  0  0  0
    2.0094   -1.3870    0.0000 S   0  0  0  0  0  0  0  0  0  0  0  0
    3.4098   -0.8495    0.0000 C   0  0  0  0  0  0  0  0  0  0  0  0
    4.6678   -1.6664    0.0000 N   0  0  0  0  0  0  0  0  0  0  0  0
    6.0043   -0.9854    0.0000 C   0  0  0  0  0  0  0  0  0  0  0  0
    6.0827    0.5125    0.0000 O   0  0  0  0  0  0  0  0  0  0  0  0
    7.2623   -1.8024    0.0000 C   0  0  0  0  0  0  0  0  0  0  0  0
   -0.4325   -0.2998    0.0000 S   0  0  0  0  0  0  0  0  0  0  0  0
   -0.3540   -1.7977    0.0000 O   0  0  0  0  0  0  0  0  0  0  0  0
   -0.5109    1.1981    0.0000 O   0  0  0  0  0  0  0  0  0  0  0  0
   -1.9305   -0.3783    0.0000 N   0  0  0  0  0  0  0  0  0  0  0  0
  1  2  1  0  0  0  0
  3  2  1  0  0  0  0
  2  6  1  0  0  0  0
  4  3  2  0  0  0  0
  5  4  1  0  0  0  0
  4 11  1  0  0  0  0
  6  5  1  0  0  0  0
  6  7  2  0  0  0  0
  7  8  1  0  0  0  0
  8  9  2  0  0  0  0
  8 10  1  0  0  0  0
 11 12  2  0  0  0  0
 11 13  2  0  0  0  0
 11 14  1  0  0  0  0
M  END
> <Inchi_key>
FLOSMHQXBMRNHR-QPJJXVBHSA-N, FLOSMHQXBMRNHR-DAXSKMNVSA-N

> <Source>
Mulliner,  Kotsampasakou

> <ID>
EK0329;HT1338

> <H_MFHB>
0

> <CAS>


> <Cholestasis>
0

> <Name>
methazolamide

> <Class>
0


$$$$