
  -INDIGO-08031710012D

 28 30  0  0  0  0  0  0  0  0999 V2000
   10.1461  -10.1461    0.0000 C   0  0  0  0  0  0  0  0  0  0  0  0
   10.1461   -8.6461    0.0000 C   0  0  0  0  0  0  0  0  0  0  0  0
    8.8472   -7.8961    0.0000 N   0  0  0  0  0  0  0  0  0  0  0  0
    8.8472   -6.3961    0.0000 C   0  0  0  0  0  0  0  0  0  0  0  0
   10.1461   -5.6461    0.0000 C   0  0  0  0  0  0  0  0  0  0  0  0
    7.5480   -8.6461    0.0000 C   0  0  0  0  0  0  0  0  0  0  0  0
    6.2491   -7.8961    0.0000 C   0  0  0  0  0  0  0  0  0  0  0  0
    4.9499   -8.6461    0.0000 C   0  0  0  0  0  0  0  0  0  0  0  0
    3.6510   -7.8961    0.0000 C   0  0  0  0  0  0  0  0  0  0  0  0
    3.6510   -6.3961    0.0000 C   0  0  0  0  0  0  0  0  0  0  0  0
    2.3519   -8.6461    0.0000 N   0  0  0  0  0  0  0  0  0  0  0  0
    1.0529   -7.8961    0.0000 C   0  0  0  0  0  0  0  0  0  0  0  0
    1.0529   -6.3961    0.0000 C   0  0  0  0  0  0  0  0  0  0  0  0
    2.3519   -5.6461    0.0000 C   0  0  0  0  0  0  0  0  0  0  0  0
    2.3519   -4.1461    0.0000 C   0  0  0  0  0  0  0  0  0  0  0  0
    1.0529   -3.3961    0.0000 C   0  0  0  0  0  0  0  0  0  0  0  0
    1.0529   -1.8961    0.0000 Cl  0  0  0  0  0  0  0  0  0  0  0  0
   -0.2462   -4.1461    0.0000 C   0  0  0  0  0  0  0  0  0  0  0  0
   -0.2462   -5.6461    0.0000 C   0  0  0  0  0  0  0  0  0  0  0  0
   -1.5452   -6.3961    0.0000 N   0  0  0  0  0  0  0  0  0  0  0  0
   -1.5452   -7.8961    0.0000 C   0  0  0  0  0  0  0  0  0  0  0  0
   -2.8443   -8.6461    0.0000 C   0  0  0  0  0  0  0  0  0  0  0  0
   -2.8443  -10.1461    0.0000 C   0  0  0  0  0  0  0  0  0  0  0  0
   -1.5452  -10.8961    0.0000 C   0  0  0  0  0  0  0  0  0  0  0  0
   -1.5452  -12.3961    0.0000 O   0  0  0  0  0  0  0  0  0  0  0  0
   -2.8443  -13.1461    0.0000 C   0  0  0  0  0  0  0  0  0  0  0  0
   -0.2462  -10.1461    0.0000 C   0  0  0  0  0  0  0  0  0  0  0  0
   -0.2462   -8.6461    0.0000 C   0  0  0  0  0  0  0  0  0  0  0  0
  1  2  1  0  0  0  0
  2  3  1  0  0  0  0
  3  4  1  0  0  0  0
  3  6  1  0  0  0  0
  4  5  1  0  0  0  0
  6  7  1  0  0  0  0
  7  8  1  0  0  0  0
  8  9  1  0  0  0  0
  9 10  1  0  0  0  0
  9 11  1  0  0  0  0
 11 12  1  0  0  0  0
 13 12  2  0  0  0  0
 12 28  1  0  0  0  0
 14 13  1  0  0  0  0
 13 19  1  0  0  0  0
 15 14  2  0  0  0  0
 16 15  1  0  0  0  0
 16 17  1  0  0  0  0
 18 16  2  0  0  0  0
 19 18  1  0  0  0  0
 20 19  2  0  0  0  0
 21 20  1  0  0  0  0
 22 21  1  0  0  0  0
 21 28  2  0  0  0  0
 23 22  2  0  0  0  0
 24 23  1  0  0  0  0
 24 25  1  0  0  0  0
 27 24  2  0  0  0  0
 25 26  1  0  0  0  0
 28 27  1  0  0  0  0
M  END
> <Inchi_key>
GPKJTRJOBQGKQK-UHFFFAOYSA-N

> <Source>
Mulliner

> <ID>
HT1301

> <H_MFHB>
0

> <CAS>
83-89-6

> <Cholestasis>


> <Name>
mepacrine;quinacrine hydrochloride;quinacrine

> <Class>
0

$$$$