
  -INDIGO-08031710012D

 47 53  0  0  0  0  0  0  0  0999 V2000
    1.4411    9.9978    0.0000 C   0  0  0  0  0  0  0  0  0  0  0  0
    0.7034    8.6916    0.0000 O   0  0  0  0  0  0  0  0  0  0  0  0
    1.4659    7.3998    0.0000 C   0  0  0  0  0  0  0  0  0  0  0  0
    2.9889    7.4000    0.0000 C   0  0  0  0  0  0  0  0  0  0  0  0
    3.7139    6.0865    0.0000 C   0  0  0  0  0  0  0  0  0  0  0  0
    4.9505    6.5914    0.0000 C   0  0  0  0  0  0  0  0  0  0  0  0
    6.3463    6.6939    0.0000 C   0  0  0  0  0  0  0  0  0  0  0  0
    7.4942    5.9570    0.0000 C   0  0  0  0  0  0  0  0  0  0  0  0
    8.7444    6.6302    0.0000 C   0  0  0  0  0  0  0  0  0  0  0  0
    8.8953    8.1722    0.0000 C   0  0  0  0  0  0  0  0  0  0  0  0
    7.6012    8.9591    0.0000 C   0  0  0  0  0  0  0  0  0  0  0  0
    6.2594    8.2458    0.0000 N   0  0  0  0  0  0  0  0  0  0  0  0
    4.7599    8.2049    0.0000 C   0  0  0  0  0  0  0  0  0  0  0  0
    5.4992    9.5387    0.0000 C   0  0  0  0  0  0  0  0  0  0  0  0
   10.1162    5.9099    0.0000 C   0  0  0  0  0  0  0  0  0  0  0  0
   10.0598    4.3983    0.0000 C   0  0  0  0  0  0  0  0  0  0  0  0
   11.3361    3.6102    0.0000 O   0  0  0  0  0  0  0  0  0  0  0  0
   12.6568    4.3213    0.0000 C   0  0  0  0  0  0  0  0  0  0  0  0
    8.7271    3.6686    0.0000 C   0  0  0  0  0  0  0  0  0  0  0  0
    8.6251    2.1721    0.0000 O   0  0  0  0  0  0  0  0  0  0  0  0
    9.8703    1.3354    0.0000 C   0  0  0  0  0  0  0  0  0  0  0  0
    7.4777    4.5931    0.0000 C   0  0  0  0  0  0  0  0  0  0  0  0
    6.6257    3.4823    0.0000 O   0  0  0  0  0  0  0  0  0  0  0  0
    5.7284    2.4927    0.0000 C   0  0  0  0  0  0  0  0  0  0  0  0
    4.5085    3.3660    0.0000 C   0  0  0  0  0  0  0  0  0  0  0  0
    3.1341    2.7103    0.0000 C   0  0  0  0  0  0  0  0  0  0  0  0
    3.0443    1.2157    0.0000 C   0  0  0  0  0  0  0  0  0  0  0  0
    1.7108    1.1388    0.0000 C   0  0  0  0  0  0  0  0  0  0  0  0
    0.3948    1.5970    0.0000 C   0  0  0  0  0  0  0  0  0  0  0  0
   -0.1513    0.1439    0.0000 N   0  0  0  0  0  0  0  0  0  0  0  0
    0.7483   -1.0564    0.0000 C   0  0  0  0  0  0  0  0  0  0  0  0
   -1.6641    0.0295    0.0000 C   0  0  0  0  0  0  0  0  0  0  0  0
   -2.5342    1.2678    0.0000 C   0  0  0  0  0  0  0  0  0  0  0  0
   -1.7680    2.6224    0.0000 C   0  0  0  0  0  0  0  0  0  0  0  0
   -2.7553    3.8156    0.0000 C   0  0  0  0  0  0  0  0  0  0  0  0
   -2.1035    5.2012    0.0000 C   0  0  0  0  0  0  0  0  0  0  0  0
   -2.9563    6.4350    0.0000 O   0  0  0  0  0  0  0  0  0  0  0  0
   -4.4514    6.3134    0.0000 C   0  0  0  0  0  0  0  0  0  0  0  0
   -0.6016    5.3194    0.0000 C   0  0  0  0  0  0  0  0  0  0  0  0
   -0.4946    6.5932    0.0000 O   0  0  0  0  0  0  0  0  0  0  0  0
    0.7410    6.0864    0.0000 C   0  0  0  0  0  0  0  0  0  0  0  0
    1.4503    4.8178    0.0000 C   0  0  0  0  0  0  0  0  0  0  0  0
    3.0035    4.8178    0.0000 C   0  0  0  0  0  0  0  0  0  0  0  0
    0.1883    4.0403    0.0000 C   0  0  0  0  0  0  0  0  0  0  0  0
   -0.3706    2.7358    0.0000 C   0  0  0  0  0  0  0  0  0  0  0  0
    4.2323    0.3735    0.0000 C   0  0  0  0  0  0  0  0  0  0  0  0
    5.6347    1.0424    0.0000 C   0  0  0  0  0  0  0  0  0  0  0  0
  1  2  1  0  0  0  0
  2  3  1  0  0  0  0
  4  3  2  0  0  0  0
  3 41  1  0  0  0  0
  5  4  1  0  0  0  0
  5  6  1  0  0  0  0
 43  5  2  0  0  0  0
  6  7  1  0  0  0  0
  8  7  1  0  0  0  0
  7 12  1  0  0  0  0
  8  9  1  0  0  0  0
 22  8  2  0  0  0  0
 10  9  1  0  0  0  0
  9 15  2  0  0  0  0
 11 10  1  0  0  0  0
 12 11  1  0  0  0  0
 12 13  1  0  0  0  0
 12 14  1  0  0  0  0
 15 16  1  0  0  0  0
 16 17  1  0  0  0  0
 16 19  2  0  0  0  0
 17 18  1  0  0  0  0
 19 20  1  0  0  0  0
 19 22  1  0  0  0  0
 20 21  1  0  0  0  0
 22 23  1  0  0  0  0
 23 24  1  0  0  0  0
 25 24  2  0  0  0  0
 24 47  1  0  0  0  0
 26 25  1  0  0  0  0
 27 26  2  0  0  0  0
 27 28  1  0  0  0  0
 46 27  1  0  0  0  0
 28 29  1  0  0  0  0
 30 29  1  0  0  0  0
 29 45  1  0  0  0  0
 30 31  1  0  0  0  0
 32 30  1  0  0  0  0
 33 32  1  0  0  0  0
 34 33  1  0  0  0  0
 35 34  2  0  0  0  0
 34 45  1  0  0  0  0
 36 35  1  0  0  0  0
 36 37  1  0  0  0  0
 39 36  2  0  0  0  0
 37 38  1  0  0  0  0
 39 40  1  0  0  0  0
 44 39  1  0  0  0  0
 40 41  1  0  0  0  0
 41 42  2  0  0  0  0
 42 43  1  0  0  0  0
 45 44  2  0  0  0  0
 47 46  2  0  0  0  0
M  CHG  1  12   1
M  END
> <Inchi_key>
GVOAZVYCWIRHSQ-UHFFFAOYSA-N

> <Source>
Mulliner

> <ID>
HT3969

> <H_MFHB>
0

> <CAS>
518-26-3

> <Cholestasis>


> <Name>
dimethyltubocurarine

> <Class>
0

$$$$