
  -INDIGO-08031710012D

 16 16  0  0  0  0  0  0  0  0999 V2000
    9.4308   -2.5270    0.0000 C   0  0  0  0  0  0  0  0  0  0  0  0
    8.1318   -1.7770    0.0000 C   0  0  0  0  0  0  0  0  0  0  0  0
    8.1318   -0.2770    0.0000 O   0  0  0  0  0  0  0  0  0  0  0  0
    6.8328   -2.5270    0.0000 N   0  0  0  0  0  0  0  0  0  0  0  0
    5.5336   -1.7770    0.0000 C   0  0  0  0  0  0  0  0  0  0  0  0
    5.5336   -0.2770    0.0000 C   0  0  0  0  0  0  0  0  0  0  0  0
    6.8328    0.4730    0.0000 I   0  0  0  0  0  0  0  0  0  0  0  0
    4.2348    0.4730    0.0000 C   0  0  0  0  0  0  0  0  0  0  0  0
    2.9356   -0.2770    0.0000 C   0  0  0  0  0  0  0  0  0  0  0  0
    1.6366    0.4730    0.0000 I   0  0  0  0  0  0  0  0  0  0  0  0
    2.9356   -1.7770    0.0000 C   0  0  0  0  0  0  0  0  0  0  0  0
    1.6366   -2.5270    0.0000 C   0  0  0  0  0  0  0  0  0  0  0  0
    1.6366   -4.0270    0.0000 O   0  0  0  0  0  0  0  0  0  0  0  0
    0.3376   -1.7770    0.0000 O   0  0  0  0  0  0  0  0  0  0  0  0
    4.2348   -2.5270    0.0000 C   0  0  0  0  0  0  0  0  0  0  0  0
    4.2348   -4.0270    0.0000 I   0  0  0  0  0  0  0  0  0  0  0  0
  1  2  1  0  0  0  0
  2  3  2  0  0  0  0
  2  4  1  0  0  0  0
  4  5  1  0  0  0  0
  6  5  2  0  0  0  0
  5 15  1  0  0  0  0
  6  7  1  0  0  0  0
  8  6  1  0  0  0  0
  9  8  2  0  0  0  0
  9 10  1  0  0  0  0
 11  9  1  0  0  0  0
 11 12  1  0  0  0  0
 15 11  2  0  0  0  0
 12 13  2  0  0  0  0
 12 14  1  0  0  0  0
 15 16  1  0  0  0  0
M  END
> <Inchi_key>
GNOGSFBXBWBTIG-UHFFFAOYSA-N

> <Source>
Mulliner , Kotsampasakou

> <ID>
EK0006;HT0061

> <H_MFHB>
0

> <CAS>


> <Cholestasis>
0

> <Name>
acetrizoate

> <Class>
0

$$$$