

  -INDIGO-08031710012D

 23 24  0  0  0  0  0  0  0  0999 V2000
    6.6434    3.8286    0.0000 C   0  0  0  0  0  0  0  0  0  0  0  0
    6.6410    2.3286    0.0000 C   0  0  0  0  0  0  0  0  0  0  0  0
    5.3405    1.5808    0.0000 N   0  0  0  0  0  0  0  0  0  0  0  0
    5.3381    0.0807    0.0000 C   0  0  0  0  0  0  0  0  0  0  0  0
    6.6357   -0.6714    0.0000 C   0  0  0  0  0  0  0  0  0  0  0  0
    6.6333   -2.1714    0.0000 N   0  0  0  0  0  0  0  0  0  0  0  0
    7.9312   -2.9235    0.0000 C   0  0  0  0  0  0  0  0  0  0  0  0
    9.2314   -2.1757    0.0000 C   0  0  0  0  0  0  0  0  0  0  0  0
   10.5291   -2.9279    0.0000 C   0  0  0  0  0  0  0  0  0  0  0  0
   11.8293   -2.1801    0.0000 O   0  0  0  0  0  0  0  0  0  0  0  0
   13.1272   -2.9324    0.0000 C   0  0  0  0  0  0  0  0  0  0  0  0
    5.3330   -2.9192    0.0000 S   0  0  0  0  0  0  0  0  0  0  0  0
    4.6093   -4.2331    0.0000 O   0  0  0  0  0  0  0  0  0  0  0  0
    6.0979   -4.2096    0.0000 O   0  0  0  0  0  0  0  0  0  0  0  0
    4.0352   -2.1670    0.0000 C   0  0  0  0  0  0  0  0  0  0  0  0
    2.6079   -2.6281    0.0000 S   0  0  0  0  0  0  0  0  0  0  0  0
    1.7282   -1.4131    0.0000 C   0  0  0  0  0  0  0  0  0  0  0  0
    2.6119   -0.2011    0.0000 C   0  0  0  0  0  0  0  0  0  0  0  0
    4.0376   -0.6671    0.0000 C   0  0  0  0  0  0  0  0  0  0  0  0
    0.2282   -1.4106    0.0000 S   0  0  0  0  0  0  0  0  0  0  0  0
    0.2258   -2.9106    0.0000 O   0  0  0  0  0  0  0  0  0  0  0  0
    0.2308    0.0894    0.0000 O   0  0  0  0  0  0  0  0  0  0  0  0
   -1.2718   -1.4081    0.0000 N   0  0  0  0  0  0  0  0  0  0  0  0
  1  2  1  0  0  0  0
  2  3  1  0  0  0  0
  3  4  1  0  0  0  0
  5  4  1  0  0  0  0
  4 19  1  0  0  0  0
  6  5  1  0  0  0  0
  6  7  1  0  0  0  0
 12  6  1  0  0  0  0
  7  8  1  0  0  0  0
  8  9  1  0  0  0  0
  9 10  1  0  0  0  0
 10 11  1  0  0  0  0
 12 13  2  0  0  0  0
 12 14  2  0  0  0  0
 15 12  1  0  0  0  0
 16 15  1  0  0  0  0
 15 19  2  0  0  0  0
 17 16  1  0  0  0  0
 18 17  2  0  0  0  0
 17 20  1  0  0  0  0
 19 18  1  0  0  0  0
 20 21  2  0  0  0  0
 20 22  2  0  0  0  0
 20 23  1  0  0  0  0
M  END
> <Inchi_key>
HCRKCZRJWPKOAR-UHFFFAOYSA-N

> <Source>
Mulliner , Kotsampasakou

> <ID>
EK0070;HT0305

> <H_MFHB>
0

> <CAS>


> <Cholestasis>
0

> <Name>
brinzolamide

> <Class>
0


$$$$