

  -INDIGO-08031710012D

 15 16  0  0  0  0  0  0  0  0999 V2000
   10.8254    3.3724    0.0000 N   0  0  0  0  0  0  0  0  0  0  0  0
    9.4857    4.0472    0.0000 C   0  0  0  0  0  0  0  0  0  0  0  0
    9.4001    5.5448    0.0000 N   0  0  0  0  0  0  0  0  0  0  0  0
    8.2315    3.2244    0.0000 N   0  0  0  0  0  0  0  0  0  0  0  0
    6.8919    3.8991    0.0000 C   0  0  0  0  0  0  0  0  0  0  0  0
    5.6376    3.0763    0.0000 C   0  0  0  0  0  0  0  0  0  0  0  0
    5.5662    1.5781    0.0000 C   0  0  0  0  0  0  0  0  0  0  0  0
    4.1191    1.1831    0.0000 O   0  0  0  0  0  0  0  0  0  0  0  0
    3.2962    2.4373    0.0000 C   0  0  0  0  0  0  0  0  0  0  0  0
    2.4851    1.1755    0.0000 C   0  0  0  0  0  0  0  0  0  0  0  0
    0.9870    1.2470    0.0000 C   0  0  0  0  0  0  0  0  0  0  0  0
    0.2997    2.5803    0.0000 C   0  0  0  0  0  0  0  0  0  0  0  0
    1.1108    3.8421    0.0000 C   0  0  0  0  0  0  0  0  0  0  0  0
    2.6091    3.7706    0.0000 C   0  0  0  0  0  0  0  0  0  0  0  0
    4.2349    3.6074    0.0000 O   0  0  0  0  0  0  0  0  0  0  0  0
  1  2  1  0  0  0  0
  2  3  2  0  0  0  0
  2  4  1  0  0  0  0
  4  5  1  0  0  0  0
  5  6  1  0  0  0  0
  7  6  1  0  0  0  0
  6 15  1  0  0  0  0
  8  7  1  0  0  0  0
  9  8  1  0  0  0  0
 10  9  1  0  0  0  0
  9 14  1  0  0  0  0
 15  9  1  0  0  0  0
 11 10  1  0  0  0  0
 12 11  1  0  0  0  0
 13 12  1  0  0  0  0
 14 13  1  0  0  0  0
M  END
> <Inchi_key>
HPBNRIOWIXYZFK-UHFFFAOYSA-N

> <Source>
Mulliner , Kotsampasakou

> <ID>
EK0251;HT1008

> <H_MFHB>
0

> <CAS>


> <Cholestasis>
0

> <Name>
guanadrel sulfate;guanadrel

> <Class>
0


$$$$