
  -INDIGO-08031710012D

 14 14  0  0  0  0  0  0  0  0999 V2000
    0.8525    3.1817    0.0000 C   0  0  0  0  0  0  0  0  0  0  0  0
    2.1517    2.4317    0.0000 O   0  0  0  0  0  0  0  0  0  0  0  0
    2.1517    0.9317    0.0000 C   0  0  0  0  0  0  0  0  0  0  0  0
    0.8525    0.1817    0.0000 C   0  0  0  0  0  0  0  0  0  0  0  0
    0.8525   -1.3183    0.0000 C   0  0  0  0  0  0  0  0  0  0  0  0
    2.1517   -2.0683    0.0000 C   0  0  0  0  0  0  0  0  0  0  0  0
    3.4505   -1.3183    0.0000 C   0  0  0  0  0  0  0  0  0  0  0  0
    3.4505    0.1817    0.0000 C   0  0  0  0  0  0  0  0  0  0  0  0
    4.7497    0.9317    0.0000 O   0  0  0  0  0  0  0  0  0  0  0  0
    6.0487    0.1817    0.0000 C   0  0  0  0  0  0  0  0  0  0  0  0
    7.3478    0.9317    0.0000 C   0  0  0  0  0  0  0  0  0  0  0  0
    7.3478    2.4317    0.0000 O   0  0  0  0  0  0  0  0  0  0  0  0
    8.6468    0.1817    0.0000 C   0  0  0  0  0  0  0  0  0  0  0  0
    9.9458    0.9317    0.0000 O   0  0  0  0  0  0  0  0  0  0  0  0
  1  2  1  0  0  0  0
  2  3  1  0  0  0  0
  4  3  2  0  0  0  0
  3  8  1  0  0  0  0
  5  4  1  0  0  0  0
  6  5  2  0  0  0  0
  7  6  1  0  0  0  0
  8  7  2  0  0  0  0
  8  9  1  0  0  0  0
  9 10  1  0  0  0  0
 10 11  1  0  0  0  0
 11 12  1  0  0  0  0
 11 13  1  0  0  0  0
 13 14  1  0  0  0  0
M  END
> <Inchi_key>
HSRJKNPTNIJEKV-UHFFFAOYSA-N

> <Source>
Mulliner

> <ID>
HT1006

> <H_MFHB>
0

> <CAS>


> <Cholestasis>


> <Name>
guaifenesin

> <Class>
0

$$$$