

  -INDIGO-08031710012D

 14 15  0  0  0  0  0  0  0  0999 V2000
    8.2613   -2.2136    0.0000 C   0  0  0  0  0  0  0  0  0  0  0  0
    6.9622   -1.4636    0.0000 C   0  0  0  0  0  0  0  0  0  0  0  0
    6.9622    0.0364    0.0000 C   0  0  0  0  0  0  0  0  0  0  0  0
    5.6632    0.7864    0.0000 C   0  0  0  0  0  0  0  0  0  0  0  0
    4.3641    0.0364    0.0000 C   0  0  0  0  0  0  0  0  0  0  0  0
    3.0651    0.7864    0.0000 C   0  0  0  0  0  0  0  0  0  0  0  0
    3.0651    2.2864    0.0000 Cl  0  0  0  0  0  0  0  0  0  0  0  0
    1.7661    0.0364    0.0000 C   0  0  0  0  0  0  0  0  0  0  0  0
    1.7661   -1.4636    0.0000 C   0  0  0  0  0  0  0  0  0  0  0  0
    0.4670   -2.2136    0.0000 Cl  0  0  0  0  0  0  0  0  0  0  0  0
    3.0651   -2.2136    0.0000 C   0  0  0  0  0  0  0  0  0  0  0  0
    3.0651   -3.7136    0.0000 O   0  0  0  0  0  0  0  0  0  0  0  0
    4.3641   -1.4636    0.0000 C   0  0  0  0  0  0  0  0  0  0  0  0
    5.6632   -2.2136    0.0000 N   0  0  0  0  0  0  0  0  0  0  0  0
  1  2  1  0  0  0  0
  3  2  2  0  0  0  0
  2 14  1  0  0  0  0
  4  3  1  0  0  0  0
  5  4  2  0  0  0  0
  6  5  1  0  0  0  0
  5 13  1  0  0  0  0
  6  7  1  0  0  0  0
  8  6  2  0  0  0  0
  9  8  1  0  0  0  0
  9 10  1  0  0  0  0
 11  9  2  0  0  0  0
 11 12  1  0  0  0  0
 13 11  1  0  0  0  0
 14 13  2  0  0  0  0
M  END
> <Inchi_key>
GPTXWRGISTZRIO-UHFFFAOYSA-N

> <Source>
Mulliner

> <ID>
HT2989

> <H_MFHB>
0

> <CAS>


> <Cholestasis>


> <Name>


> <Class>
0


$$$$