

  -INDIGO-08031710012D

 21 23  0  0  0  0  0  0  0  0999 V2000
    9.3517    3.2708    0.0000 C   0  0  0  0  0  0  0  0  0  0  0  0
    8.5418    4.5333    0.0000 N   0  0  0  0  0  0  0  0  0  0  0  0
    7.0434    4.4632    0.0000 C   0  0  0  0  0  0  0  0  0  0  0  0
    6.3304    5.7829    0.0000 N   0  0  0  0  0  0  0  0  0  0  0  0
    4.8537    6.0465    0.0000 C   0  0  0  0  0  0  0  0  0  0  0  0
    4.5604    7.5174    0.0000 C   0  0  0  0  0  0  0  0  0  0  0  0
    3.1396    7.9988    0.0000 C   0  0  0  0  0  0  0  0  0  0  0  0
    2.0124    7.0092    0.0000 C   0  0  0  0  0  0  0  0  0  0  0  0
    0.5917    7.4906    0.0000 Cl  0  0  0  0  0  0  0  0  0  0  0  0
    2.3058    5.5382    0.0000 C   0  0  0  0  0  0  0  0  0  0  0  0
    3.7265    5.0568    0.0000 C   0  0  0  0  0  0  0  0  0  0  0  0
    3.7966    3.5584    0.0000 C   0  0  0  0  0  0  0  0  0  0  0  0
    5.0119    2.6797    0.0000 N   0  0  0  0  0  0  0  0  0  0  0  0
    4.7485    1.2030    0.0000 O   0  0  0  0  0  0  0  0  0  0  0  0
    6.4569    3.0826    0.0000 C   0  0  0  0  0  0  0  0  0  0  0  0
    2.4776    2.8443    0.0000 C   0  0  0  0  0  0  0  0  0  0  0  0
    1.1994    3.6295    0.0000 C   0  0  0  0  0  0  0  0  0  0  0  0
   -0.1195    2.9154    0.0000 C   0  0  0  0  0  0  0  0  0  0  0  0
   -0.1606    1.4160    0.0000 C   0  0  0  0  0  0  0  0  0  0  0  0
    1.1174    0.6307    0.0000 C   0  0  0  0  0  0  0  0  0  0  0  0
    2.4365    1.3449    0.0000 C   0  0  0  0  0  0  0  0  0  0  0  0
  1  2  1  0  0  0  0
  2  3  1  0  0  0  0
  4  3  2  0  0  0  0
  3 15  1  0  0  0  0
  5  4  1  0  0  0  0
  6  5  2  0  0  0  0
  5 11  1  0  0  0  0
  7  6  1  0  0  0  0
  8  7  2  0  0  0  0
  8  9  1  0  0  0  0
 10  8  1  0  0  0  0
 11 10  2  0  0  0  0
 12 11  1  0  0  0  0
 13 12  2  0  0  0  0
 12 16  1  0  0  0  0
 13 14  1  0  0  0  0
 15 13  1  0  0  0  0
 17 16  2  0  0  0  0
 16 21  1  0  0  0  0
 18 17  1  0  0  0  0
 19 18  2  0  0  0  0
 20 19  1  0  0  0  0
 21 20  2  0  0  0  0
M  CHG  2  13   1  14  -1
M  END
> <Inchi_key>
ANTSCNMPPGJYLG-UHFFFAOYSA-N

> <Source>
Mulliner

> <ID>
HT0450

> <H_MFHB>
0

> <CAS>
58-25-3

> <Cholestasis>


> <Name>
chlordiazepoxide hydrochloride;chlordiazepoxide

> <Class>
0


$$$$