

  -INDIGO-08031710012D

 31 36  0  0  0  0  0  0  0  0999 V2000
    8.6827   -1.9428    0.0000 C   0  0  0  0  0  0  0  0  0  0  0  0
    7.8688   -3.1928    0.0000 C   0  0  0  0  0  0  0  0  0  0  0  0
    8.4061   -4.6052    0.0000 C   0  0  0  0  0  0  0  0  0  0  0  0
    9.8380   -5.0283    0.0000 O   0  0  0  0  0  0  0  0  0  0  0  0
    7.1846   -5.4817    0.0000 O   0  0  0  0  0  0  0  0  0  0  0  0
    5.8830   -4.7383    0.0000 C   0  0  0  0  0  0  0  0  0  0  0  0
    4.3668   -4.7152    0.0000 C   0  0  0  0  0  0  0  0  0  0  0  0
    3.5223   -5.9691    0.0000 O   0  0  0  0  0  0  0  0  0  0  0  0
    3.8496   -3.2474    0.0000 C   0  0  0  0  0  0  0  0  0  0  0  0
    3.6155   -4.6128    0.0000 C   0  0  0  0  0  0  0  0  0  0  0  0
    5.0866   -5.1249    0.0000 O   0  0  0  0  0  0  0  0  0  0  0  0
    5.9667   -3.8953    0.0000 C   0  0  0  0  0  0  0  0  0  0  0  0
    7.4498   -3.9897    0.0000 O   0  0  0  0  0  0  0  0  0  0  0  0
    5.1048   -2.5600    0.0000 C   0  0  0  0  0  0  0  0  0  0  0  0
    4.7341   -1.0719    0.0000 O   0  0  0  0  0  0  0  0  0  0  0  0
    3.2390   -0.9695    0.0000 C   0  0  0  0  0  0  0  0  0  0  0  0
    2.0977    0.0021    0.0000 O   0  0  0  0  0  0  0  0  0  0  0  0
    0.8200   -0.7734    0.0000 C   0  0  0  0  0  0  0  0  0  0  0  0
   -0.5643   -0.1929    0.0000 O   0  0  0  0  0  0  0  0  0  0  0  0
    1.1697   -2.2304    0.0000 C   0  0  0  0  0  0  0  0  0  0  0  0
    0.6268   -3.6395    0.0000 O   0  0  0  0  0  0  0  0  0  0  0  0
    2.6415   -2.3808    0.0000 C   0  0  0  0  0  0  0  0  0  0  0  0
    1.4860   -3.3780    0.0000 C   0  0  0  0  0  0  0  0  0  0  0  0
    2.0865   -4.7806    0.0000 C   0  0  0  0  0  0  0  0  0  0  0  0
    1.3294   -6.0666    0.0000 O   0  0  0  0  0  0  0  0  0  0  0  0
   -0.0301   -3.3804    0.0000 C   0  0  0  0  0  0  0  0  0  0  0  0
    0.0169   -4.9199    0.0000 C   0  0  0  0  0  0  0  0  0  0  0  0
   -0.1028   -1.9217    0.0000 C   0  0  0  0  0  0  0  0  0  0  0  0
   -1.5281   -3.4800    0.0000 C   0  0  0  0  0  0  0  0  0  0  0  0
    6.3613   -3.2888    0.0000 C   0  0  0  0  0  0  0  0  0  0  0  0
    6.7115   -1.8239    0.0000 O   0  0  0  0  0  0  0  0  0  0  0  0
  1  2  1  0  0  0  0
  3  2  1  0  0  0  0
  2 30  1  0  0  0  0
  3  4  2  0  0  0  0
  5  3  1  0  0  0  0
  6  5  1  0  0  0  0
  7  6  1  0  0  0  0
  6 30  1  0  0  0  0
  7  8  1  0  0  0  0
  9  7  1  0  0  0  0
 10  9  1  0  0  0  0
  9 14  1  0  0  0  0
  9 22  1  0  0  0  0
 10 11  1  0  0  0  0
 24 10  1  0  0  0  0
 11 12  1  0  0  0  0
 12 13  2  0  0  0  0
 12 14  1  0  0  0  0
 14 15  1  0  0  0  0
 30 14  1  0  0  0  0
 15 16  1  0  0  0  0
 17 16  1  0  0  0  0
 16 22  1  0  0  0  0
 18 17  1  0  0  0  0
 18 19  2  0  0  0  0
 20 18  1  0  0  0  0
 20 21  1  0  0  0  0
 22 20  1  0  0  0  0
 22 23  1  0  0  0  0
 23 24  1  0  0  0  0
 23 26  1  0  0  0  0
 24 25  1  0  0  0  0
 26 27  1  0  0  0  0
 26 28  1  0  0  0  0
 26 29  1  0  0  0  0
 30 31  1  0  0  0  0
M  END
> <Inchi_key>
AMOGMTLMADGEOQ-UHFFFAOYSA-N

> <Source>
Mulliner

> <ID>
HT0977

> <H_MFHB>
0

> <CAS>


> <Cholestasis>


> <Name>
ginkgolide-c

> <Class>
0


$$$$