
  -INDIGO-08031710012D

  6  5  0  0  0  0  0  0  0  0999 V2000
    0.5335   -0.9240    0.0000 Cl  0  0  0  0  0  0  0  0  0  0  0  0
    1.2835    0.3750    0.0000 C   0  0  0  0  0  0  0  0  0  0  0  0
   -0.0155    1.1250    0.0000 Cl  0  0  0  0  0  0  0  0  0  0  0  0
    2.0335    1.6740    0.0000 Cl  0  0  0  0  0  0  0  0  0  0  0  0
    2.5825   -0.3750    0.0000 C   0  0  0  0  0  0  0  0  0  0  0  0
    3.8816    0.3750    0.0000 O   0  0  0  0  0  0  0  0  0  0  0  0
  1  2  1  0  0  0  0
  2  3  1  0  0  0  0
  2  4  1  0  0  0  0
  2  5  1  0  0  0  0
  5  6  2  0  0  0  0
M  END
> <Inchi_key>
HFFLGKNGCAIQMO-UHFFFAOYSA-N

> <Source>
Mulliner

> <ID>
HT2616

> <H_MFHB>
0

> <CAS>


> <Cholestasis>


> <Name>


> <Class>
0

$$$$