
  -INDIGO-08031710012D

 32 35  0  0  0  0  0  0  0  0999 V2000
    1.3546    2.5384    0.0000 C   0  0  0  0  0  0  0  0  0  0  0  0
    2.6535    1.7884    0.0000 N   0  0  0  0  0  0  0  0  0  0  0  0
    3.9527    2.5384    0.0000 C   0  0  0  0  0  0  0  0  0  0  0  0
    2.6535    0.2884    0.0000 C   0  0  0  0  0  0  0  0  0  0  0  0
    3.9527   -0.4616    0.0000 C   0  0  0  0  0  0  0  0  0  0  0  0
    5.2518    0.2884    0.0000 C   0  0  0  0  0  0  0  0  0  0  0  0
    6.5507   -0.4616    0.0000 C   0  0  0  0  0  0  0  0  0  0  0  0
    7.8499    0.2884    0.0000 C   0  0  0  0  0  0  0  0  0  0  0  0
    7.8499    1.7884    0.0000 O   0  0  0  0  0  0  0  0  0  0  0  0
    9.1488   -0.4616    0.0000 C   0  0  0  0  0  0  0  0  0  0  0  0
   10.4478    0.2884    0.0000 C   0  0  0  0  0  0  0  0  0  0  0  0
   10.4478    1.7884    0.0000 Cl  0  0  0  0  0  0  0  0  0  0  0  0
   11.7469   -0.4616    0.0000 C   0  0  0  0  0  0  0  0  0  0  0  0
   11.7469   -1.9616    0.0000 C   0  0  0  0  0  0  0  0  0  0  0  0
   10.4478   -2.7116    0.0000 C   0  0  0  0  0  0  0  0  0  0  0  0
   10.4478   -4.2116    0.0000 O   0  0  0  0  0  0  0  0  0  0  0  0
    9.1488   -1.9616    0.0000 C   0  0  0  0  0  0  0  0  0  0  0  0
    7.8499   -2.7116    0.0000 C   0  0  0  0  0  0  0  0  0  0  0  0
    6.5507   -1.9616    0.0000 C   0  0  0  0  0  0  0  0  0  0  0  0
    5.2518   -2.7116    0.0000 C   0  0  0  0  0  0  0  0  0  0  0  0
    5.2518   -4.2116    0.0000 O   0  0  0  0  0  0  0  0  0  0  0  0
    3.9527   -1.9616    0.0000 C   0  0  0  0  0  0  0  0  0  0  0  0
    3.9527   -3.4616    0.0000 O   0  0  0  0  0  0  0  0  0  0  0  0
    2.6535   -2.7116    0.0000 C   0  0  0  0  0  0  0  0  0  0  0  0
    1.3546   -1.9616    0.0000 C   0  0  0  0  0  0  0  0  0  0  0  0
    0.0554   -2.7116    0.0000 C   0  0  0  0  0  0  0  0  0  0  0  0
   -1.2435   -1.9616    0.0000 O   0  0  0  0  0  0  0  0  0  0  0  0
    0.0554   -4.2116    0.0000 O   0  0  0  0  0  0  0  0  0  0  0  0
    1.3546   -0.4616    0.0000 C   0  0  0  0  0  0  0  0  0  0  0  0
    0.0554    0.2884    0.0000 O   0  0  0  0  0  0  0  0  0  0  0  0
    2.6535   -4.2116    0.0000 O   0  0  0  0  0  0  0  0  0  0  0  0
    7.8499   -4.2116    0.0000 O   0  0  0  0  0  0  0  0  0  0  0  0
  1  2  1  0  0  0  0
  2  3  1  0  0  0  0
  2  4  1  0  0  0  0
  5  4  1  0  0  0  0
  4 29  1  0  0  0  0
  6  5  1  0  0  0  0
  5 22  1  0  0  0  0
  7  6  1  0  0  0  0
  8  7  1  0  0  0  0
  7 19  1  0  0  0  0
  8  9  1  0  0  0  0
 10  8  1  0  0  0  0
 11 10  2  0  0  0  0
 10 17  1  0  0  0  0
 11 12  1  0  0  0  0
 13 11  1  0  0  0  0
 14 13  2  0  0  0  0
 15 14  1  0  0  0  0
 15 16  1  0  0  0  0
 17 15  2  0  0  0  0
 18 17  1  0  0  0  0
 19 18  2  0  0  0  0
 18 32  1  0  0  0  0
 20 19  1  0  0  0  0
 20 21  2  0  0  0  0
 22 20  1  0  0  0  0
 22 23  1  0  0  0  0
 24 22  1  0  0  0  0
 25 24  2  0  0  0  0
 24 31  1  0  0  0  0
 25 26  1  0  0  0  0
 29 25  1  0  0  0  0
 26 27  2  0  0  0  0
 26 28  1  0  0  0  0
 29 30  2  0  0  0  0
M  END
> <Inchi_key>
HTCACZZPPLEBTK-UHFFFAOYSA-N

> <Source>
Mulliner

> <ID>
HT3854

> <H_MFHB>
0

> <CAS>


> <Cholestasis>


> <Name>


> <Class>
0

$$$$