

  -INDIGO-08031710012D

 19 20  0  0  0  0  0  0  0  0999 V2000
   -2.1711   -5.4013    0.0000 O   0  0  0  0  0  0  0  0  0  0  0  0
   -1.4211   -4.1022    0.0000 C   0  0  0  0  0  0  0  0  0  0  0  0
   -2.1711   -2.8032    0.0000 O   0  0  0  0  0  0  0  0  0  0  0  0
    0.0789   -4.1022    0.0000 C   0  0  0  0  0  0  0  0  0  0  0  0
    0.8289   -5.4013    0.0000 C   0  0  0  0  0  0  0  0  0  0  0  0
    2.3290   -5.4013    0.0000 C   0  0  0  0  0  0  0  0  0  0  0  0
    3.0790   -4.1022    0.0000 C   0  0  0  0  0  0  0  0  0  0  0  0
    4.5788   -4.1022    0.0000 N   0  0  0  0  0  0  0  0  0  0  0  0
    5.3288   -5.4013    0.0000 C   0  0  0  0  0  0  0  0  0  0  0  0
    4.5788   -6.7003    0.0000 O   0  0  0  0  0  0  0  0  0  0  0  0
    6.8289   -5.4013    0.0000 C   0  0  0  0  0  0  0  0  0  0  0  0
    7.5789   -6.7003    0.0000 C   0  0  0  0  0  0  0  0  0  0  0  0
    9.0789   -6.7003    0.0000 C   0  0  0  0  0  0  0  0  0  0  0  0
    9.8289   -5.4013    0.0000 C   0  0  0  0  0  0  0  0  0  0  0  0
    9.0789   -4.1022    0.0000 C   0  0  0  0  0  0  0  0  0  0  0  0
    7.5789   -4.1022    0.0000 C   0  0  0  0  0  0  0  0  0  0  0  0
    2.3290   -2.8032    0.0000 C   0  0  0  0  0  0  0  0  0  0  0  0
    0.8289   -2.8032    0.0000 C   0  0  0  0  0  0  0  0  0  0  0  0
    0.0789   -1.5041    0.0000 O   0  0  0  0  0  0  0  0  0  0  0  0
  1  2  1  0  0  0  0
  2  3  2  0  0  0  0
  2  4  1  0  0  0  0
  5  4  2  0  0  0  0
  4 18  1  0  0  0  0
  6  5  1  0  0  0  0
  7  6  2  0  0  0  0
  7  8  1  0  0  0  0
 17  7  1  0  0  0  0
  8  9  1  0  0  0  0
  9 10  2  0  0  0  0
  9 11  1  0  0  0  0
 12 11  2  0  0  0  0
 11 16  1  0  0  0  0
 13 12  1  0  0  0  0
 14 13  2  0  0  0  0
 15 14  1  0  0  0  0
 16 15  2  0  0  0  0
 18 17  2  0  0  0  0
 18 19  1  0  0  0  0
M  END
> <Inchi_key>
GNZCRYWFWKFIDM-UHFFFAOYSA-N

> <Source>
Mulliner

> <ID>
HT0352

> <H_MFHB>
0

> <CAS>


> <Cholestasis>


> <Name>
calcium 4-benzamidosalicylate

> <Class>
0


$$$$