
  -INDIGO-08031710012D

 10 10  0  0  0  0  0  0  0  0999 V2000
    6.6000    0.0000    0.0000 O   0  0  0  0  0  0  0  0  0  0  0  0
    5.1000    0.0000    0.0000 C   0  0  0  0  0  0  0  0  0  0  0  0
    4.3500    1.2990    0.0000 N   0  0  0  0  0  0  0  0  0  0  0  0
    2.8500    1.2990    0.0000 C   0  0  0  0  0  0  0  0  0  0  0  0
    2.1000    2.5981    0.0000 O   0  0  0  0  0  0  0  0  0  0  0  0
    2.1000    0.0000    0.0000 C   0  0  0  0  0  0  0  0  0  0  0  0
    0.6000    0.0000    0.0000 O   0  0  0  0  0  0  0  0  0  0  0  0
    2.8500   -1.2990    0.0000 C   0  0  0  0  0  0  0  0  0  0  0  0
    2.1000   -2.5981    0.0000 O   0  0  0  0  0  0  0  0  0  0  0  0
    4.3500   -1.2990    0.0000 N   0  0  0  0  0  0  0  0  0  0  0  0
  1  2  2  0  0  0  0
  3  2  1  0  0  0  0
  2 10  1  0  0  0  0
  4  3  1  0  0  0  0
  4  5  2  0  0  0  0
  6  4  1  0  0  0  0
  6  7  2  0  0  0  0
  8  6  1  0  0  0  0
  8  9  2  0  0  0  0
 10  8  1  0  0  0  0
M  END
> <Inchi_key>
HIMXGTXNXJYFGB-UHFFFAOYSA-N

> <Source>
Mulliner , Kotsampasakou

> <ID>
EK0018;HT0104

> <H_MFHB>
0

> <CAS>


> <Cholestasis>
0

> <Name>
alloxan;alloxan hydrate

> <Class>
0

$$$$