

  -INDIGO-08031710012D

 47 52  0  0  0  0  0  0  0  0999 V2000
   21.9263    9.4991    0.0000 C   0  0  0  0  0  0  0  0  0  0  0  0
   20.9294   10.6198    0.0000 C   0  0  0  0  0  0  0  0  0  0  0  0
   19.4367   10.4722    0.0000 C   0  0  0  0  0  0  0  0  0  0  0  0
   18.6790    9.1777    0.0000 C   0  0  0  0  0  0  0  0  0  0  0  0
   17.1788    9.1867    0.0000 O   0  0  0  0  0  0  0  0  0  0  0  0
   16.4210    7.8922    0.0000 C   0  0  0  0  0  0  0  0  0  0  0  0
   17.1631    6.5888    0.0000 O   0  0  0  0  0  0  0  0  0  0  0  0
   14.9209    7.9013    0.0000 N   0  0  0  0  0  0  0  0  0  0  0  0
   14.0465    9.1203    0.0000 C   0  0  0  0  0  0  0  0  0  0  0  0
   12.6174    8.6653    0.0000 C   0  0  0  0  0  0  0  0  0  0  0  0
   12.6080    7.1655    0.0000 C   0  0  0  0  0  0  0  0  0  0  0  0
   14.0320    6.6932    0.0000 C   0  0  0  0  0  0  0  0  0  0  0  0
   11.3896    6.2911    0.0000 N   0  0  0  0  0  0  0  0  0  0  0  0
   11.3802    4.7912    0.0000 C   0  0  0  0  0  0  0  0  0  0  0  0
    9.9510    4.3362    0.0000 C   0  0  0  0  0  0  0  0  0  0  0  0
    9.0767    5.5552    0.0000 C   0  0  0  0  0  0  0  0  0  0  0  0
    7.5765    5.5643    0.0000 C   0  0  0  0  0  0  0  0  0  0  0  0
    6.8345    6.8678    0.0000 C   0  0  0  0  0  0  0  0  0  0  0  0
    5.3347    6.8769    0.0000 C   0  0  0  0  0  0  0  0  0  0  0  0
    4.5922    8.1805    0.0000 N   0  0  0  0  0  0  0  0  0  0  0  0
    5.3504    9.4748    0.0000 C   0  0  0  0  0  0  0  0  0  0  0  0
    6.8502    9.4657    0.0000 S   0  0  0  0  0  0  0  0  0  0  0  0
    7.5922    8.1623    0.0000 C   0  0  0  0  0  0  0  0  0  0  0  0
    4.0557   10.2327    0.0000 C   0  0  0  0  0  0  0  0  0  0  0  0
    3.6765   11.6840    0.0000 N   0  0  0  0  0  0  0  0  0  0  0  0
    2.2301   12.0809    0.0000 C   0  0  0  0  0  0  0  0  0  0  0  0
    1.1630   11.0268    0.0000 O   0  0  0  0  0  0  0  0  0  0  0  0
    1.8505   13.5324    0.0000 C   0  0  0  0  0  0  0  0  0  0  0  0
    2.9176   14.5865    0.0000 N   0  0  0  0  0  0  0  0  0  0  0  0
    2.5380   16.0378    0.0000 O   0  0  0  0  0  0  0  0  0  0  0  0
    0.4041   13.9293    0.0000 C   0  0  0  0  0  0  0  0  0  0  0  0
   -0.7677   12.9924    0.0000 N   0  0  0  0  0  0  0  0  0  0  0  0
   -2.0205   13.8169    0.0000 S   0  0  0  0  0  0  0  0  0  0  0  0
   -1.6237   15.2634    0.0000 C   0  0  0  0  0  0  0  0  0  0  0  0
   -2.5604   16.4349    0.0000 N   0  0  0  0  0  0  0  0  0  0  0  0
   -0.1250   15.3329    0.0000 N   0  0  0  0  0  0  0  0  0  0  0  0
    3.2980    8.9384    0.0000 C   0  0  0  0  0  0  0  0  0  0  0  0
    1.8467    8.5589    0.0000 O   0  0  0  0  0  0  0  0  0  0  0  0
    4.5766    5.5825    0.0000 C   0  0  0  0  0  0  0  0  0  0  0  0
    5.3190    4.2789    0.0000 O   0  0  0  0  0  0  0  0  0  0  0  0
    3.0768    5.5914    0.0000 O   0  0  0  0  0  0  0  0  0  0  0  0
    9.9656    6.7633    0.0000 C   0  0  0  0  0  0  0  0  0  0  0  0
    9.5109    8.1927    0.0000 O   0  0  0  0  0  0  0  0  0  0  0  0
   18.8348   11.8463    0.0000 O   0  0  0  0  0  0  0  0  0  0  0  0
   19.9557   12.8431    0.0000 C   0  0  0  0  0  0  0  0  0  0  0  0
   19.8077   14.3357    0.0000 O   0  0  0  0  0  0  0  0  0  0  0  0
   21.2500   12.0852    0.0000 O   0  0  0  0  0  0  0  0  0  0  0  0
  1  2  1  0  0  0  0
  3  2  2  0  0  0  0
  2 47  1  0  0  0  0
  3  4  1  0  0  0  0
 44  3  1  0  0  0  0
  4  5  1  0  0  0  0
  5  6  1  0  0  0  0
  6  7  2  0  0  0  0
  6  8  1  0  0  0  0
  9  8  1  0  0  0  0
  8 12  1  0  0  0  0
 10  9  1  0  0  0  0
 11 10  1  0  0  0  0
 12 11  1  0  0  0  0
 11 13  1  0  0  0  0
 14 13  1  0  0  0  0
 13 42  1  0  0  0  0
 15 14  1  0  0  0  0
 16 15  1  0  0  0  0
 16 17  2  0  0  0  0
 42 16  1  0  0  0  0
 17 18  1  0  0  0  0
 19 18  2  0  0  0  0
 18 23  1  0  0  0  0
 20 19  1  0  0  0  0
 19 39  1  0  0  0  0
 20 21  1  0  0  0  0
 37 20  1  0  0  0  0
 22 21  1  0  0  0  0
 21 24  1  0  0  0  0
 23 22  1  0  0  0  0
 24 25  1  0  0  0  0
 24 37  1  0  0  0  0
 25 26  1  0  0  0  0
 26 27  2  0  0  0  0
 26 28  1  0  0  0  0
 28 29  2  0  0  0  0
 28 31  1  0  0  0  0
 29 30  1  0  0  0  0
 32 31  2  0  0  0  0
 31 36  1  0  0  0  0
 33 32  1  0  0  0  0
 34 33  1  0  0  0  0
 34 35  1  0  0  0  0
 36 34  2  0  0  0  0
 37 38  2  0  0  0  0
 39 40  2  0  0  0  0
 39 41  1  0  0  0  0
 42 43  2  0  0  0  0
 45 44  1  0  0  0  0
 45 46  2  0  0  0  0
 47 45  1  0  0  0  0
M  END
> <Inchi_key>
HFTSMHTWUFCYMJ-AXTJNQRGSA-N

> <Source>
Mulliner

> <ID>
HT0426

> <H_MFHB>
0

> <CAS>
376652-43-9

> <Cholestasis>


> <Name>
ceftobiprole medocaril

> <Class>
0


$$$$