
  -INDIGO-08031710012D

 38 43  0  0  0  0  0  0  0  0999 V2000
    2.8075    2.8198    0.0000 C   0  0  0  0  0  0  0  0  0  0  0  0
    2.8141    1.3197    0.0000 C   0  0  0  0  0  0  0  0  0  0  0  0
    4.1164    0.5754    0.0000 C   0  0  0  0  0  0  0  0  0  0  0  0
    4.1227   -0.9246    0.0000 C   0  0  0  0  0  0  0  0  0  0  0  0
    2.8272   -1.6803    0.0000 C   0  0  0  0  0  0  0  0  0  0  0  0
    2.8338   -3.1802    0.0000 C   0  0  0  0  0  0  0  0  0  0  0  0
    4.1361   -3.9245    0.0000 C   0  0  0  0  0  0  0  0  0  0  0  0
    5.4318   -3.1690    0.0000 C   0  0  0  0  0  0  0  0  0  0  0  0
    6.7341   -3.9133    0.0000 C   0  0  0  0  0  0  0  0  0  0  0  0
    8.0298   -3.1574    0.0000 C   0  0  0  0  0  0  0  0  0  0  0  0
    9.3321   -3.9019    0.0000 O   0  0  0  0  0  0  0  0  0  0  0  0
    8.0233   -1.6575    0.0000 C   0  0  0  0  0  0  0  0  0  0  0  0
    6.7210   -0.9132    0.0000 C   0  0  0  0  0  0  0  0  0  0  0  0
    5.4250   -1.6689    0.0000 C   0  0  0  0  0  0  0  0  0  0  0  0
    5.3923   -0.1692    0.0000 C   0  0  0  0  0  0  0  0  0  0  0  0
    9.3190   -0.9018    0.0000 N   0  0  0  0  0  0  0  0  0  0  0  0
   10.6213   -1.6462    0.0000 C   0  0  0  0  0  0  0  0  0  0  0  0
   11.9170   -0.8905    0.0000 C   0  0  0  0  0  0  0  0  0  0  0  0
   11.9104    0.6094    0.0000 O   0  0  0  0  0  0  0  0  0  0  0  0
   10.6081    1.3539    0.0000 C   0  0  0  0  0  0  0  0  0  0  0  0
    9.3124    0.5980    0.0000 C   0  0  0  0  0  0  0  0  0  0  0  0
    1.5249   -0.9358    0.0000 C   0  0  0  0  0  0  0  0  0  0  0  0
    0.1001   -1.4057    0.0000 C   0  0  0  0  0  0  0  0  0  0  0  0
   -0.7868   -0.1960    0.0000 C   0  0  0  0  0  0  0  0  0  0  0  0
    0.0895    1.0213    0.0000 C   0  0  0  0  0  0  0  0  0  0  0  0
   -0.3801    2.4460    0.0000 O   0  0  0  0  0  0  0  0  0  0  0  0
    0.6187    3.5650    0.0000 C   0  0  0  0  0  0  0  0  0  0  0  0
    0.1490    4.9895    0.0000 O   0  0  0  0  0  0  0  0  0  0  0  0
    2.0873    3.2595    0.0000 C   0  0  0  0  0  0  0  0  0  0  0  0
    1.5181    0.5641    0.0000 C   0  0  0  0  0  0  0  0  0  0  0  0
   -2.2868   -0.2025    0.0000 N   0  0  0  0  0  0  0  0  0  0  0  0
   -1.5768   -1.5239    0.0000 C   0  0  0  0  0  0  0  0  0  0  0  0
   -2.3660   -2.7995    0.0000 C   0  0  0  0  0  0  0  0  0  0  0  0
   -1.6560   -4.1208    0.0000 C   0  0  0  0  0  0  0  0  0  0  0  0
   -2.4759    1.2855    0.0000 C   0  0  0  0  0  0  0  0  0  0  0  0
   -3.9498    1.5652    0.0000 C   0  0  0  0  0  0  0  0  0  0  0  0
   -4.6712    0.2501    0.0000 C   0  0  0  0  0  0  0  0  0  0  0  0
   -3.6433   -0.8424    0.0000 C   0  0  0  0  0  0  0  0  0  0  0  0
  1  2  1  0  0  0  0
  3  2  1  0  0  0  0
  2 30  1  0  0  0  0
  4  3  1  0  0  0  0
  4  5  1  0  0  0  0
 14  4  1  0  0  0  0
  5  6  1  0  0  0  0
 22  5  1  0  0  0  0
  6  7  1  0  0  0  0
  7  8  1  0  0  0  0
  9  8  1  0  0  0  0
  8 14  1  0  0  0  0
 10  9  1  0  0  0  0
 10 11  1  0  0  0  0
 12 10  1  0  0  0  0
 13 12  1  0  0  0  0
 12 16  1  0  0  0  0
 14 13  1  0  0  0  0
 14 15  1  0  0  0  0
 17 16  1  0  0  0  0
 16 21  1  0  0  0  0
 18 17  1  0  0  0  0
 19 18  1  0  0  0  0
 20 19  1  0  0  0  0
 21 20  1  0  0  0  0
 23 22  1  0  0  0  0
 22 30  1  0  0  0  0
 24 23  1  0  0  0  0
 25 24  1  0  0  0  0
 24 31  1  0  0  0  0
 25 26  1  0  0  0  0
 30 25  1  0  0  0  0
 26 27  1  0  0  0  0
 27 28  2  0  0  0  0
 27 29  1  0  0  0  0
 31 32  1  0  0  0  0
 35 31  1  0  0  0  0
 31 38  1  0  0  0  0
 32 33  1  0  0  0  0
 33 34  2  0  0  0  0
 36 35  1  0  0  0  0
 37 36  1  0  0  0  0
 38 37  1  0  0  0  0
M  CHG  1  31   1
M  END
> <Inchi_key>
GTWYFGFEMDFSML-UHFFFAOYSA-N

> <Source>
Mulliner

> <ID>
HT3907

> <H_MFHB>
0

> <CAS>


> <Cholestasis>


> <Name>


> <Class>
0

$$$$