
  -INDIGO-08031710012D

 22 23  0  0  0  0  0  0  0  0999 V2000
   13.1840   -2.0881    0.0000 C   0  0  0  0  0  0  0  0  0  0  0  0
   11.7574   -1.6246    0.0000 C   0  0  0  0  0  0  0  0  0  0  0  0
   11.4455   -0.1574    0.0000 N   0  0  0  0  0  0  0  0  0  0  0  0
   12.4493    0.9573    0.0000 C   0  0  0  0  0  0  0  0  0  0  0  0
   11.6993    2.2564    0.0000 C   0  0  0  0  0  0  0  0  0  0  0  0
   10.2319    1.9445    0.0000 C   0  0  0  0  0  0  0  0  0  0  0  0
   10.0754    0.4527    0.0000 C   0  0  0  0  0  0  0  0  0  0  0  0
    8.7761   -0.2973    0.0000 C   0  0  0  0  0  0  0  0  0  0  0  0
    7.4773    0.4527    0.0000 N   0  0  0  0  0  0  0  0  0  0  0  0
    6.1780   -0.2973    0.0000 C   0  0  0  0  0  0  0  0  0  0  0  0
    6.1780   -1.7973    0.0000 O   0  0  0  0  0  0  0  0  0  0  0  0
    4.8792    0.4527    0.0000 C   0  0  0  0  0  0  0  0  0  0  0  0
    4.8792    1.9527    0.0000 C   0  0  0  0  0  0  0  0  0  0  0  0
    6.1780    2.7027    0.0000 O   0  0  0  0  0  0  0  0  0  0  0  0
    6.1780    4.2027    0.0000 C   0  0  0  0  0  0  0  0  0  0  0  0
    3.5801    2.7027    0.0000 C   0  0  0  0  0  0  0  0  0  0  0  0
    2.2811    1.9527    0.0000 C   0  0  0  0  0  0  0  0  0  0  0  0
    2.2811    0.4527    0.0000 C   0  0  0  0  0  0  0  0  0  0  0  0
    0.9820   -0.2973    0.0000 Br  0  0  0  0  0  0  0  0  0  0  0  0
    3.5801   -0.2973    0.0000 C   0  0  0  0  0  0  0  0  0  0  0  0
    3.5801   -1.7973    0.0000 O   0  0  0  0  0  0  0  0  0  0  0  0
    2.2811   -2.5473    0.0000 C   0  0  0  0  0  0  0  0  0  0  0  0
  1  2  1  0  0  0  0
  2  3  1  0  0  0  0
  4  3  1  0  0  0  0
  3  7  1  0  0  0  0
  5  4  1  0  0  0  0
  6  5  1  0  0  0  0
  7  6  1  0  0  0  0
  7  8  1  0  0  0  0
  8  9  1  0  0  0  0
  9 10  1  0  0  0  0
 10 11  2  0  0  0  0
 10 12  1  0  0  0  0
 13 12  2  0  0  0  0
 12 20  1  0  0  0  0
 13 14  1  0  0  0  0
 16 13  1  0  0  0  0
 14 15  1  0  0  0  0
 17 16  2  0  0  0  0
 18 17  1  0  0  0  0
 18 19  1  0  0  0  0
 20 18  2  0  0  0  0
 20 21  1  0  0  0  0
 21 22  1  0  0  0  0
M  END
> <Inchi_key>
GUJRSXAPGDDABA-UHFFFAOYSA-N

> <Source>
Mulliner

> <ID>
HT1810

> <H_MFHB>
0

> <CAS>


> <Cholestasis>


> <Name>
remoxipride

> <Class>
0

$$$$