

  -INDIGO-08031710012D

 32 35  0  0  0  0  0  0  0  0999 V2000
    1.3717    2.4995    0.0000 C   0  0  0  0  0  0  0  0  0  0  0  0
    2.6708    1.7495    0.0000 N   0  0  0  0  0  0  0  0  0  0  0  0
    3.9698    2.4995    0.0000 C   0  0  0  0  0  0  0  0  0  0  0  0
    2.6708    0.2495    0.0000 C   0  0  0  0  0  0  0  0  0  0  0  0
    3.9698   -0.5005    0.0000 C   0  0  0  0  0  0  0  0  0  0  0  0
    5.2687    0.2495    0.0000 C   0  0  0  0  0  0  0  0  0  0  0  0
    6.5678   -0.5005    0.0000 C   0  0  0  0  0  0  0  0  0  0  0  0
    6.5678   -2.0005    0.0000 C   0  0  0  0  0  0  0  0  0  0  0  0
    5.2687   -2.7505    0.0000 C   0  0  0  0  0  0  0  0  0  0  0  0
    5.2687   -4.2505    0.0000 O   0  0  0  0  0  0  0  0  0  0  0  0
    3.9698   -2.0005    0.0000 C   0  0  0  0  0  0  0  0  0  0  0  0
    3.9698   -3.5005    0.0000 O   0  0  0  0  0  0  0  0  0  0  0  0
    2.6708   -2.7505    0.0000 C   0  0  0  0  0  0  0  0  0  0  0  0
    1.3717   -2.0005    0.0000 C   0  0  0  0  0  0  0  0  0  0  0  0
    0.0727   -2.7505    0.0000 C   0  0  0  0  0  0  0  0  0  0  0  0
    0.0727   -4.2505    0.0000 O   0  0  0  0  0  0  0  0  0  0  0  0
   -1.2264   -2.0005    0.0000 N   0  0  0  0  0  0  0  0  0  0  0  0
    1.3717   -0.5005    0.0000 C   0  0  0  0  0  0  0  0  0  0  0  0
    0.0727    0.2495    0.0000 O   0  0  0  0  0  0  0  0  0  0  0  0
    2.6708   -4.2505    0.0000 O   0  0  0  0  0  0  0  0  0  0  0  0
    7.8670   -2.7505    0.0000 C   0  0  0  0  0  0  0  0  0  0  0  0
    7.8670   -4.2505    0.0000 O   0  0  0  0  0  0  0  0  0  0  0  0
    9.1659   -2.0005    0.0000 C   0  0  0  0  0  0  0  0  0  0  0  0
   10.4651   -2.7505    0.0000 C   0  0  0  0  0  0  0  0  0  0  0  0
   10.4651   -4.2505    0.0000 O   0  0  0  0  0  0  0  0  0  0  0  0
   11.7640   -2.0005    0.0000 C   0  0  0  0  0  0  0  0  0  0  0  0
   11.7640   -0.5005    0.0000 C   0  0  0  0  0  0  0  0  0  0  0  0
   10.4651    0.2495    0.0000 C   0  0  0  0  0  0  0  0  0  0  0  0
    9.1659   -0.5005    0.0000 C   0  0  0  0  0  0  0  0  0  0  0  0
    7.8670    0.2495    0.0000 C   0  0  0  0  0  0  0  0  0  0  0  0
    8.6168    1.5486    0.0000 C   0  0  0  0  0  0  0  0  0  0  0  0
    7.1169    1.5486    0.0000 O   0  0  0  0  0  0  0  0  0  0  0  0
  1  2  1  0  0  0  0
  2  3  1  0  0  0  0
  2  4  1  0  0  0  0
  5  4  1  0  0  0  0
  4 18  1  0  0  0  0
  6  5  1  0  0  0  0
  5 11  1  0  0  0  0
  7  6  1  0  0  0  0
  7  8  1  0  0  0  0
 30  7  1  0  0  0  0
  9  8  2  0  0  0  0
  8 21  1  0  0  0  0
  9 10  1  0  0  0  0
 11  9  1  0  0  0  0
 11 12  1  0  0  0  0
 13 11  1  0  0  0  0
 14 13  2  0  0  0  0
 13 20  1  0  0  0  0
 14 15  1  0  0  0  0
 18 14  1  0  0  0  0
 15 16  2  0  0  0  0
 15 17  1  0  0  0  0
 18 19  2  0  0  0  0
 21 22  2  0  0  0  0
 21 23  1  0  0  0  0
 24 23  2  0  0  0  0
 23 29  1  0  0  0  0
 24 25  1  0  0  0  0
 26 24  1  0  0  0  0
 27 26  2  0  0  0  0
 28 27  1  0  0  0  0
 29 28  2  0  0  0  0
 29 30  1  0  0  0  0
 30 31  1  0  0  0  0
 30 32  1  0  0  0  0
M  END
> <Inchi_key>
HKVWCHCBKOJRHE-UHFFFAOYSA-N

> <Source>
Mulliner

> <ID>
HT2027

> <H_MFHB>
0

> <CAS>
60-54-8

> <Cholestasis>


> <Name>
tetracycline hydrochloride;tetracycline phosphate complex;tetracycline

> <Class>
0


$$$$