
  -INDIGO-08031710012D

 11 11  0  0  0  0  0  0  0  0999 V2000
    5.7928    0.0718    0.0000 O   0  0  0  0  0  0  0  0  0  0  0  0
    5.0428   -1.2273    0.0000 S   0  0  0  0  0  0  0  0  0  0  0  0
    4.2928   -2.5263    0.0000 O   0  0  0  0  0  0  0  0  0  0  0  0
    6.3419   -1.9773    0.0000 O   0  0  0  0  0  0  0  0  0  0  0  0
    3.7438   -0.4773    0.0000 N   0  0  0  0  0  0  0  0  0  0  0  0
    2.4448   -1.2273    0.0000 C   0  0  0  0  0  0  0  0  0  0  0  0
    1.1457   -0.4773    0.0000 C   0  0  0  0  0  0  0  0  0  0  0  0
   -0.1533   -1.2273    0.0000 C   0  0  0  0  0  0  0  0  0  0  0  0
   -0.1533   -2.7273    0.0000 C   0  0  0  0  0  0  0  0  0  0  0  0
    1.1457   -3.4773    0.0000 C   0  0  0  0  0  0  0  0  0  0  0  0
    2.4448   -2.7273    0.0000 C   0  0  0  0  0  0  0  0  0  0  0  0
  1  2  2  0  0  0  0
  2  3  2  0  0  0  0
  2  4  1  0  0  0  0
  2  5  1  0  0  0  0
  5  6  1  0  0  0  0
  7  6  1  0  0  0  0
  6 11  1  0  0  0  0
  8  7  1  0  0  0  0
  9  8  1  0  0  0  0
 10  9  1  0  0  0  0
 11 10  1  0  0  0  0
M  END
> <Inchi_key>
HCAJEUSONLESMK-UHFFFAOYSA-N

> <Source>
Mulliner

> <ID>
HT2768

> <H_MFHB>
0

> <CAS>


> <Cholestasis>


> <Name>


> <Class>
0

$$$$