
  -INDIGO-08031710012D

 10  9  0  0  0  0  0  0  0  0999 V2000
    2.1000    2.1000    0.0000 O   0  0  0  0  0  0  0  0  0  0  0  0
    2.1000    0.6000    0.0000 C   0  0  0  0  0  0  0  0  0  0  0  0
    3.3990   -0.1500    0.0000 P   0  0  0  0  0  0  0  0  0  0  0  0
    2.6490   -1.4490    0.0000 O   0  0  0  0  0  0  0  0  0  0  0  0
    4.1490    1.1490    0.0000 O   0  0  0  0  0  0  0  0  0  0  0  0
    4.6981   -0.9000    0.0000 O   0  0  0  0  0  0  0  0  0  0  0  0
    0.8010   -0.1500    0.0000 P   0  0  0  0  0  0  0  0  0  0  0  0
    0.0510    1.1490    0.0000 O   0  0  0  0  0  0  0  0  0  0  0  0
   -0.4981   -0.9000    0.0000 O   0  0  0  0  0  0  0  0  0  0  0  0
    1.5510   -1.4490    0.0000 O   0  0  0  0  0  0  0  0  0  0  0  0
  1  2  1  0  0  0  0
  2  3  1  0  0  0  0
  2  7  1  0  0  0  0
  3  4  2  0  0  0  0
  3  5  1  0  0  0  0
  3  6  1  0  0  0  0
  7  8  2  0  0  0  0
  7  9  1  0  0  0  0
  7 10  1  0  0  0  0
M  END
> <Inchi_key>
HJZKOAYDRQLPME-UHFFFAOYSA-N

> <Source>
Mulliner

> <ID>
HT2822

> <H_MFHB>
0

> <CAS>


> <Cholestasis>


> <Name>


> <Class>
0

$$$$