

  -INDIGO-08031710012D

 24 26  0  0  0  0  0  0  0  0999 V2000
    0.8461    0.8460    0.0000 C   0  0  0  0  0  0  0  0  0  0  0  0
    0.8461   -0.6540    0.0000 N   0  0  0  0  0  0  0  0  0  0  0  0
    2.1449   -1.4040    0.0000 C   0  0  0  0  0  0  0  0  0  0  0  0
    3.4440   -0.6540    0.0000 C   0  0  0  0  0  0  0  0  0  0  0  0
    3.4440    0.8460    0.0000 C   0  0  0  0  0  0  0  0  0  0  0  0
    4.7431    1.5960    0.0000 C   0  0  0  0  0  0  0  0  0  0  0  0
    6.0420    0.8460    0.0000 C   0  0  0  0  0  0  0  0  0  0  0  0
    6.0420   -0.6540    0.0000 C   0  0  0  0  0  0  0  0  0  0  0  0
    4.7431   -1.4040    0.0000 C   0  0  0  0  0  0  0  0  0  0  0  0
    7.3411    1.5960    0.0000 C   0  0  0  0  0  0  0  0  0  0  0  0
    8.6402    2.3460    0.0000 C   0  0  0  0  0  0  0  0  0  0  0  0
    8.0912    0.2970    0.0000 C   0  0  0  0  0  0  0  0  0  0  0  0
    6.5913    2.8950    0.0000 C   0  0  0  0  0  0  0  0  0  0  0  0
   -0.4530   -1.4040    0.0000 C   0  0  0  0  0  0  0  0  0  0  0  0
   -1.7521   -0.6540    0.0000 C   0  0  0  0  0  0  0  0  0  0  0  0
   -1.7521    0.8460    0.0000 C   0  0  0  0  0  0  0  0  0  0  0  0
   -3.0510    1.5960    0.0000 C   0  0  0  0  0  0  0  0  0  0  0  0
   -4.3501    0.8460    0.0000 C   0  0  0  0  0  0  0  0  0  0  0  0
   -4.3501   -0.6540    0.0000 C   0  0  0  0  0  0  0  0  0  0  0  0
   -5.6492   -1.4040    0.0000 C   0  0  0  0  0  0  0  0  0  0  0  0
   -5.6492   -2.9040    0.0000 C   0  0  0  0  0  0  0  0  0  0  0  0
   -4.3501   -3.6540    0.0000 C   0  0  0  0  0  0  0  0  0  0  0  0
   -3.0510   -2.9040    0.0000 C   0  0  0  0  0  0  0  0  0  0  0  0
   -3.0510   -1.4040    0.0000 C   0  0  0  0  0  0  0  0  0  0  0  0
  1  2  1  0  0  0  0
  2  3  1  0  0  0  0
  2 14  1  0  0  0  0
  3  4  1  0  0  0  0
  5  4  2  0  0  0  0
  4  9  1  0  0  0  0
  6  5  1  0  0  0  0
  7  6  2  0  0  0  0
  8  7  1  0  0  0  0
  7 10  1  0  0  0  0
  9  8  2  0  0  0  0
 10 11  1  0  0  0  0
 10 12  1  0  0  0  0
 10 13  1  0  0  0  0
 14 15  1  0  0  0  0
 16 15  2  0  0  0  0
 15 24  1  0  0  0  0
 17 16  1  0  0  0  0
 18 17  2  0  0  0  0
 19 18  1  0  0  0  0
 20 19  1  0  0  0  0
 19 24  2  0  0  0  0
 21 20  2  0  0  0  0
 22 21  1  0  0  0  0
 23 22  2  0  0  0  0
 24 23  1  0  0  0  0
M  END
> <Inchi_key>
ABJKWBDEJIDSJZ-UHFFFAOYSA-N

> <Source>
Mulliner , Kotsampasakou

> <ID>
EK0078;HT0335

> <H_MFHB>
0

> <CAS>


> <Cholestasis>
0

> <Name>
butenafine hydrochloride;butenafine

> <Class>
0


$$$$