

  -INDIGO-08031710012D

 24 24  0  0  0  0  0  0  0  0999 V2000
    0.0000   -3.3557    0.0000 C   0  0  0  0  0  0  0  0  0  0  0  0
    1.5001   -3.3557    0.0000 C   0  0  0  0  0  0  0  0  0  0  0  0
    2.2500   -2.0567    0.0000 C   0  0  0  0  0  0  0  0  0  0  0  0
    3.7501   -2.0567    0.0000 C   0  0  0  0  0  0  0  0  0  0  0  0
    4.5000   -3.3557    0.0000 O   0  0  0  0  0  0  0  0  0  0  0  0
    4.5000   -0.7579    0.0000 N   0  0  0  0  0  0  0  0  0  0  0  0
    6.0001   -0.7579    0.0000 C   0  0  0  0  0  0  0  0  0  0  0  0
    6.7500   -2.0567    0.0000 C   0  0  0  0  0  0  0  0  0  0  0  0
    8.2500   -2.0567    0.0000 C   0  0  0  0  0  0  0  0  0  0  0  0
    9.0000   -0.7579    0.0000 C   0  0  0  0  0  0  0  0  0  0  0  0
   10.5000   -0.7579    0.0000 O   0  0  0  0  0  0  0  0  0  0  0  0
   11.2499   -2.0567    0.0000 C   0  0  0  0  0  0  0  0  0  0  0  0
   12.7500   -2.0567    0.0000 C   0  0  0  0  0  0  0  0  0  0  0  0
   13.4999   -0.7579    0.0000 O   0  0  0  0  0  0  0  0  0  0  0  0
   13.4999   -3.3557    0.0000 C   0  0  0  0  0  0  0  0  0  0  0  0
   15.0000   -3.3557    0.0000 N   0  0  0  0  0  0  0  0  0  0  0  0
   15.7499   -4.6549    0.0000 C   0  0  0  0  0  0  0  0  0  0  0  0
   15.0000   -5.9539    0.0000 C   0  0  0  0  0  0  0  0  0  0  0  0
   17.2500   -4.6549    0.0000 C   0  0  0  0  0  0  0  0  0  0  0  0
    8.2500    0.5413    0.0000 C   0  0  0  0  0  0  0  0  0  0  0  0
    6.7500    0.5413    0.0000 C   0  0  0  0  0  0  0  0  0  0  0  0
    9.0000    1.8403    0.0000 C   0  0  0  0  0  0  0  0  0  0  0  0
   10.5000    1.8403    0.0000 O   0  0  0  0  0  0  0  0  0  0  0  0
    8.2500    3.1393    0.0000 C   0  0  0  0  0  0  0  0  0  0  0  0
  1  2  1  0  0  0  0
  2  3  1  0  0  0  0
  3  4  1  0  0  0  0
  4  5  2  0  0  0  0
  4  6  1  0  0  0  0
  6  7  1  0  0  0  0
  8  7  2  0  0  0  0
  7 21  1  0  0  0  0
  9  8  1  0  0  0  0
 10  9  2  0  0  0  0
 10 11  1  0  0  0  0
 20 10  1  0  0  0  0
 11 12  1  0  0  0  0
 12 13  1  0  0  0  0
 13 14  1  0  0  0  0
 13 15  1  0  0  0  0
 15 16  1  0  0  0  0
 16 17  1  0  0  0  0
 17 18  1  0  0  0  0
 17 19  1  0  0  0  0
 21 20  2  0  0  0  0
 20 22  1  0  0  0  0
 22 23  2  0  0  0  0
 22 24  1  0  0  0  0
M  END
> <Inchi_key>
GOEMGAFJFRBGGG-UHFFFAOYSA-N

> <Source>
Mulliner

> <ID>
HT0047

> <H_MFHB>
0

> <CAS>
34381-68-5

> <Cholestasis>


> <Name>
acebutolol hydrochloride;acebutolol

> <Class>
0


$$$$