
  -INDIGO-08031710012D

 27 31  0  0  0  0  0  0  0  0999 V2000
    3.4734    6.9364    0.0000 C   0  0  0  0  0  0  0  0  0  0  0  0
    4.3719    5.7355    0.0000 N   0  0  0  0  0  0  0  0  0  0  0  0
    5.6130    5.0072    0.0000 C   0  0  0  0  0  0  0  0  0  0  0  0
    5.7482    2.8594    0.0000 C   0  0  0  0  0  0  0  0  0  0  0  0
    4.7063    1.8411    0.0000 C   0  0  0  0  0  0  0  0  0  0  0  0
    3.9889    0.6083    0.0000 C   0  0  0  0  0  0  0  0  0  0  0  0
    5.3964   -0.4678    0.0000 O   0  0  0  0  0  0  0  0  0  0  0  0
    6.8478    0.5829    0.0000 C   0  0  0  0  0  0  0  0  0  0  0  0
    8.2836    0.5764    0.0000 C   0  0  0  0  0  0  0  0  0  0  0  0
    9.0256   -0.7272    0.0000 O   0  0  0  0  0  0  0  0  0  0  0  0
   10.5255   -0.7363    0.0000 C   0  0  0  0  0  0  0  0  0  0  0  0
   11.2676   -2.0398    0.0000 O   0  0  0  0  0  0  0  0  0  0  0  0
   11.2834    0.5582    0.0000 C   0  0  0  0  0  0  0  0  0  0  0  0
    9.0082    1.8117    0.0000 C   0  0  0  0  0  0  0  0  0  0  0  0
    8.2965    3.0545    0.0000 C   0  0  0  0  0  0  0  0  0  0  0  0
    6.8716    3.0645    0.0000 C   0  0  0  0  0  0  0  0  0  0  0  0
    6.1579    4.3155    0.0000 C   0  0  0  0  0  0  0  0  0  0  0  0
    4.7215    4.3330    0.0000 C   0  0  0  0  0  0  0  0  0  0  0  0
    3.9932    3.0864    0.0000 C   0  0  0  0  0  0  0  0  0  0  0  0
    2.5633    3.0987    0.0000 C   0  0  0  0  0  0  0  0  0  0  0  0
    1.8429    1.8560    0.0000 C   0  0  0  0  0  0  0  0  0  0  0  0
    2.5559    0.6109    0.0000 C   0  0  0  0  0  0  0  0  0  0  0  0
    1.8027   -0.6861    0.0000 O   0  0  0  0  0  0  0  0  0  0  0  0
    0.3027   -0.6823    0.0000 C   0  0  0  0  0  0  0  0  0  0  0  0
   -0.4441    0.6186    0.0000 O   0  0  0  0  0  0  0  0  0  0  0  0
   -0.4507   -1.9794    0.0000 C   0  0  0  0  0  0  0  0  0  0  0  0
    6.1468    1.8290    0.0000 C   0  0  0  0  0  0  0  0  0  0  0  0
  1  2  1  0  0  0  0
  3  2  1  0  0  0  0
  2 18  1  0  0  0  0
  4  3  1  0  0  0  0
  5  4  1  0  0  0  0
  5  6  1  0  0  0  0
  5 19  1  0  0  0  0
 27  5  1  0  0  0  0
  6  7  1  0  0  0  0
 22  6  1  0  0  0  0
  7  8  1  0  0  0  0
  9  8  1  0  0  0  0
  8 27  2  0  0  0  0
  9 10  1  0  0  0  0
 14  9  2  0  0  0  0
 10 11  1  0  0  0  0
 11 12  2  0  0  0  0
 11 13  1  0  0  0  0
 15 14  1  0  0  0  0
 16 15  2  0  0  0  0
 16 17  1  0  0  0  0
 27 16  1  0  0  0  0
 17 18  1  0  0  0  0
 18 19  1  0  0  0  0
 19 20  1  0  0  0  0
 20 21  2  0  0  0  0
 21 22  1  0  0  0  0
 22 23  1  0  0  0  0
 23 24  1  0  0  0  0
 24 25  2  0  0  0  0
 24 26  1  0  0  0  0
M  END
> <Inchi_key>
GVGLGOZIDCSQPN-UHFFFAOYSA-N

> <Source>
Mulliner

> <ID>
HT3678

> <H_MFHB>
0

> <CAS>


> <Cholestasis>


> <Name>


> <Class>
0

$$$$