

  -INDIGO-08031709442D

 25 25  0  0  0  0  0  0  0  0999 V2000
    0.9890    1.0531    0.0000 O   0  0  0  0  0  0  0  0  0  0  0  0
    2.4158    0.5896    0.0000 C   0  0  0  0  0  0  0  0  0  0  0  0
    3.6294    1.4713    0.0000 C   0  0  0  0  0  0  0  0  0  0  0  0
    4.8427    0.5896    0.0000 C   0  0  0  0  0  0  0  0  0  0  0  0
    6.2695    1.0531    0.0000 O   0  0  0  0  0  0  0  0  0  0  0  0
    4.3794   -0.8370    0.0000 C   0  0  0  0  0  0  0  0  0  0  0  0
    5.2610   -2.0505    0.0000 C   0  0  0  0  0  0  0  0  0  0  0  0
    6.7528   -1.8937    0.0000 C   0  0  0  0  0  0  0  0  0  0  0  0
    7.6344   -3.1072    0.0000 C   0  0  0  0  0  0  0  0  0  0  0  0
    9.1262   -2.9505    0.0000 C   0  0  0  0  0  0  0  0  0  0  0  0
   10.0078   -4.1640    0.0000 C   0  0  0  0  0  0  0  0  0  0  0  0
   11.4997   -4.0072    0.0000 C   0  0  0  0  0  0  0  0  0  0  0  0
   12.3813   -5.2206    0.0000 C   0  0  0  0  0  0  0  0  0  0  0  0
   11.7713   -6.5910    0.0000 O   0  0  0  0  0  0  0  0  0  0  0  0
   13.8731   -5.0639    0.0000 O   0  0  0  0  0  0  0  0  0  0  0  0
    2.8794   -0.8370    0.0000 C   0  0  0  0  0  0  0  0  0  0  0  0
    1.9975   -2.0505    0.0000 C   0  0  0  0  0  0  0  0  0  0  0  0
    0.5057   -1.8937    0.0000 C   0  0  0  0  0  0  0  0  0  0  0  0
   -0.3759   -3.1072    0.0000 C   0  0  0  0  0  0  0  0  0  0  0  0
    0.2343   -4.4776    0.0000 O   0  0  0  0  0  0  0  0  0  0  0  0
   -1.8677   -2.9505    0.0000 C   0  0  0  0  0  0  0  0  0  0  0  0
   -2.7493   -4.1640    0.0000 C   0  0  0  0  0  0  0  0  0  0  0  0
   -4.2412   -4.0072    0.0000 C   0  0  0  0  0  0  0  0  0  0  0  0
   -5.1228   -5.2206    0.0000 C   0  0  0  0  0  0  0  0  0  0  0  0
   -6.6146   -5.0639    0.0000 C   0  0  0  0  0  0  0  0  0  0  0  0
  1  2  1  0  0  0  0
  3  2  1  0  0  0  0
  2 16  1  0  0  0  0
  4  3  1  0  0  0  0
  4  5  2  0  0  0  0
  6  4  1  0  0  0  0
  6  7  1  0  0  0  0
 16  6  1  0  0  0  0
  7  8  1  0  0  0  0
  8  9  1  0  0  0  0
  9 10  1  0  0  0  0
 10 11  1  0  0  0  0
 11 12  1  0  0  0  0
 12 13  1  0  0  0  0
 13 14  1  0  0  0  0
 13 15  2  0  0  0  0
 16 17  1  0  0  0  0
 17 18  2  0  0  0  0
 18 19  1  0  0  0  0
 19 20  1  0  0  0  0
 19 21  1  0  0  0  0
 21 22  1  0  0  0  0
 22 23  1  0  0  0  0
 23 24  1  0  0  0  0
 24 25  1  0  0  0  0
M  END
> <Inchi_key>
GMVPRGQOIOIIMI-OUKQBFOZSA-N, GMVPRGQOIOIIMI-SEYXRHQNSA-N

> <Source>
Kotsampasakou,  Mulliner

> <ID>
HT0115;EK0453

> <H_MFHB>
0

> <CAS>


> <Cholestasis>
0

> <Name>
prostaglandin e1 (alprostadil);alprostadil

> <Class>
0


$$$$