

  -INDIGO-08031710012D

 30 32  0  0  0  0  0  0  0  0999 V2000
   15.6423   -6.4822    0.0000 C   0  0  0  0  0  0  0  0  0  0  0  0
   14.6391   -7.5973    0.0000 C   0  0  0  0  0  0  0  0  0  0  0  0
   15.1030   -9.0237    0.0000 C   0  0  0  0  0  0  0  0  0  0  0  0
   13.1718   -7.2860    0.0000 C   0  0  0  0  0  0  0  0  0  0  0  0
   12.7077   -5.8596    0.0000 C   0  0  0  0  0  0  0  0  0  0  0  0
   12.1684   -8.4011    0.0000 C   0  0  0  0  0  0  0  0  0  0  0  0
   10.7010   -8.0898    0.0000 C   0  0  0  0  0  0  0  0  0  0  0  0
   10.2369   -6.6634    0.0000 C   0  0  0  0  0  0  0  0  0  0  0  0
   11.2404   -5.5483    0.0000 C   0  0  0  0  0  0  0  0  0  0  0  0
    8.7696   -6.3521    0.0000 C   0  0  0  0  0  0  0  0  0  0  0  0
    8.1590   -4.9820    0.0000 C   0  0  0  0  0  0  0  0  0  0  0  0
    6.6673   -5.1393    0.0000 C   0  0  0  0  0  0  0  0  0  0  0  0
    6.3560   -6.6067    0.0000 C   0  0  0  0  0  0  0  0  0  0  0  0
    5.0573   -7.3572    0.0000 C   0  0  0  0  0  0  0  0  0  0  0  0
    3.7579   -6.6076    0.0000 C   0  0  0  0  0  0  0  0  0  0  0  0
    2.4592   -7.3581    0.0000 C   0  0  0  0  0  0  0  0  0  0  0  0
    1.1599   -6.6086    0.0000 C   0  0  0  0  0  0  0  0  0  0  0  0
   -0.1389   -7.3591    0.0000 C   0  0  0  0  0  0  0  0  0  0  0  0
   -1.4382   -6.6096    0.0000 C   0  0  0  0  0  0  0  0  0  0  0  0
   -2.7370   -7.3601    0.0000 O   0  0  0  0  0  0  0  0  0  0  0  0
   -1.4388   -5.1096    0.0000 C   0  0  0  0  0  0  0  0  0  0  0  0
   -0.1400   -4.3592    0.0000 C   0  0  0  0  0  0  0  0  0  0  0  0
   -0.1406   -2.8591    0.0000 O   0  0  0  0  0  0  0  0  0  0  0  0
    1.1593   -5.1086    0.0000 C   0  0  0  0  0  0  0  0  0  0  0  0
    2.4581   -4.3581    0.0000 C   0  0  0  0  0  0  0  0  0  0  0  0
    5.0578   -8.8572    0.0000 C   0  0  0  0  0  0  0  0  0  0  0  0
    6.3572   -9.6067    0.0000 C   0  0  0  0  0  0  0  0  0  0  0  0
    7.6559   -8.8562    0.0000 C   0  0  0  0  0  0  0  0  0  0  0  0
    7.6554   -7.3562    0.0000 C   0  0  0  0  0  0  0  0  0  0  0  0
    9.0150   -7.9896    0.0000 C   0  0  0  0  0  0  0  0  0  0  0  0
  1  2  1  0  0  0  0
  2  3  1  0  0  0  0
  2  4  1  0  0  0  0
  4  5  1  0  0  0  0
  4  6  1  0  0  0  0
  6  7  2  0  0  0  0
  7  8  1  0  0  0  0
  8  9  1  0  0  0  0
  8 10  1  0  0  0  0
 11 10  1  0  0  0  0
 10 29  1  0  0  0  0
 12 11  1  0  0  0  0
 13 12  1  0  0  0  0
 14 13  1  0  0  0  0
 13 29  1  0  0  0  0
 14 15  2  0  0  0  0
 26 14  1  0  0  0  0
 15 16  1  0  0  0  0
 16 17  2  0  0  0  0
 18 17  1  0  0  0  0
 17 24  1  0  0  0  0
 19 18  1  0  0  0  0
 19 20  1  0  0  0  0
 21 19  1  0  0  0  0
 22 21  1  0  0  0  0
 22 23  1  0  0  0  0
 24 22  1  0  0  0  0
 24 25  2  0  0  0  0
 27 26  1  0  0  0  0
 28 27  1  0  0  0  0
 29 28  1  0  0  0  0
 29 30  1  0  0  0  0
M  END
> <Inchi_key>
HKXBNHCUPKIYDM-UNYFSGHCSA-N

> <Source>
Mulliner

> <ID>
HT0717

> <H_MFHB>
0

> <CAS>


> <Cholestasis>


> <Name>
doxercalciferol

> <Class>
0


$$$$