
  -INDIGO-08031710012D

 44 46  0  0  0  0  0  0  0  0999 V2000
   -6.1673    6.8536    0.0000 C   0  0  0  0  0  0  0  0  0  0  0  0
   -6.1673    5.3535    0.0000 C   0  0  0  0  0  0  0  0  0  0  0  0
   -7.4665    4.6035    0.0000 O   0  0  0  0  0  0  0  0  0  0  0  0
   -4.8684    4.6035    0.0000 O   0  0  0  0  0  0  0  0  0  0  0  0
   -4.8684    3.1034    0.0000 C   0  0  0  0  0  0  0  0  0  0  0  0
   -6.1673    2.3536    0.0000 C   0  0  0  0  0  0  0  0  0  0  0  0
   -6.1673    0.8535    0.0000 C   0  0  0  0  0  0  0  0  0  0  0  0
   -4.8684    0.1035    0.0000 C   0  0  0  0  0  0  0  0  0  0  0  0
   -3.5694    0.8535    0.0000 C   0  0  0  0  0  0  0  0  0  0  0  0
   -3.5694    2.3536    0.0000 C   0  0  0  0  0  0  0  0  0  0  0  0
   -2.2702    3.1034    0.0000 C   0  0  0  0  0  0  0  0  0  0  0  0
   -0.9713    2.3536    0.0000 O   0  0  0  0  0  0  0  0  0  0  0  0
   -2.2702    4.6035    0.0000 O   0  0  0  0  0  0  0  0  0  0  0  0
   -0.9713    5.3535    0.0000 C   0  0  0  0  0  0  0  0  0  0  0  0
    0.3279    4.6035    0.0000 C   0  0  0  0  0  0  0  0  0  0  0  0
    1.6269    5.3535    0.0000 O   0  0  0  0  0  0  0  0  0  0  0  0
    2.9258    4.6035    0.0000 C   0  0  0  0  0  0  0  0  0  0  0  0
    2.9258    3.1034    0.0000 O   0  0  0  0  0  0  0  0  0  0  0  0
    4.2250    5.3535    0.0000 C   0  0  0  0  0  0  0  0  0  0  0  0
    3.4748    6.6524    0.0000 C   0  0  0  0  0  0  0  0  0  0  0  0
    5.5239    6.1035    0.0000 C   0  0  0  0  0  0  0  0  0  0  0  0
    4.9749    4.0543    0.0000 O   0  0  0  0  0  0  0  0  0  0  0  0
    6.4748    4.0543    0.0000 C   0  0  0  0  0  0  0  0  0  0  0  0
    7.2250    5.3535    0.0000 C   0  0  0  0  0  0  0  0  0  0  0  0
    8.7248    5.3535    0.0000 C   0  0  0  0  0  0  0  0  0  0  0  0
    9.4748    4.0543    0.0000 C   0  0  0  0  0  0  0  0  0  0  0  0
   10.9749    4.0543    0.0000 Cl  0  0  0  0  0  0  0  0  0  0  0  0
    8.7248    2.7554    0.0000 C   0  0  0  0  0  0  0  0  0  0  0  0
    7.2250    2.7554    0.0000 C   0  0  0  0  0  0  0  0  0  0  0  0
   -0.9713    6.8536    0.0000 C   0  0  0  0  0  0  0  0  0  0  0  0
   -2.2702    7.6036    0.0000 O   0  0  0  0  0  0  0  0  0  0  0  0
   -2.2702    9.1034    0.0000 C   0  0  0  0  0  0  0  0  0  0  0  0
   -3.5694    9.8534    0.0000 O   0  0  0  0  0  0  0  0  0  0  0  0
   -0.9713    9.8534    0.0000 C   0  0  0  0  0  0  0  0  0  0  0  0
   -1.7212   11.1526    0.0000 C   0  0  0  0  0  0  0  0  0  0  0  0
   -0.2214    8.5543    0.0000 C   0  0  0  0  0  0  0  0  0  0  0  0
    0.3279   10.6035    0.0000 O   0  0  0  0  0  0  0  0  0  0  0  0
    0.3279   12.1035    0.0000 C   0  0  0  0  0  0  0  0  0  0  0  0
    1.6269   12.8536    0.0000 C   0  0  0  0  0  0  0  0  0  0  0  0
    1.6269   14.3534    0.0000 C   0  0  0  0  0  0  0  0  0  0  0  0
    0.3279   15.1034    0.0000 C   0  0  0  0  0  0  0  0  0  0  0  0
    0.3279   16.6035    0.0000 Cl  0  0  0  0  0  0  0  0  0  0  0  0
   -0.9713   14.3534    0.0000 C   0  0  0  0  0  0  0  0  0  0  0  0
   -0.9713   12.8536    0.0000 C   0  0  0  0  0  0  0  0  0  0  0  0
  1  2  1  0  0  0  0
  2  3  2  0  0  0  0
  2  4  1  0  0  0  0
  4  5  1  0  0  0  0
  6  5  2  0  0  0  0
  5 10  1  0  0  0  0
  7  6  1  0  0  0  0
  8  7  2  0  0  0  0
  9  8  1  0  0  0  0
 10  9  2  0  0  0  0
 10 11  1  0  0  0  0
 11 12  2  0  0  0  0
 11 13  1  0  0  0  0
 13 14  1  0  0  0  0
 14 15  1  0  0  0  0
 14 30  1  0  0  0  0
 15 16  1  0  0  0  0
 16 17  1  0  0  0  0
 17 18  2  0  0  0  0
 17 19  1  0  0  0  0
 19 20  1  0  0  0  0
 19 21  1  0  0  0  0
 19 22  1  0  0  0  0
 22 23  1  0  0  0  0
 24 23  2  0  0  0  0
 23 29  1  0  0  0  0
 25 24  1  0  0  0  0
 26 25  2  0  0  0  0
 26 27  1  0  0  0  0
 28 26  1  0  0  0  0
 29 28  2  0  0  0  0
 30 31  1  0  0  0  0
 31 32  1  0  0  0  0
 32 33  2  0  0  0  0
 32 34  1  0  0  0  0
 34 35  1  0  0  0  0
 34 36  1  0  0  0  0
 34 37  1  0  0  0  0
 37 38  1  0  0  0  0
 39 38  2  0  0  0  0
 38 44  1  0  0  0  0
 40 39  1  0  0  0  0
 41 40  2  0  0  0  0
 41 42  1  0  0  0  0
 43 41  1  0  0  0  0
 44 43  2  0  0  0  0
M  END
> <Inchi_key>
GVOWJSGFINMTQK-UHFFFAOYSA-N

> <Source>
Mulliner

> <ID>
HT1860

> <H_MFHB>
0

> <CAS>
64496-66-8

> <Cholestasis>


> <Name>
salafibrate

> <Class>
0

$$$$