
  -INDIGO-08031710012D

 16 16  0  0  0  0  0  0  0  0999 V2000
   15.3431    0.2059    0.0000 C   0  0  0  0  0  0  0  0  0  0  0  0
   13.8431    0.2059    0.0000 C   0  0  0  0  0  0  0  0  0  0  0  0
   13.0930   -1.0931    0.0000 C   0  0  0  0  0  0  0  0  0  0  0  0
   11.5931   -1.0931    0.0000 C   0  0  0  0  0  0  0  0  0  0  0  0
   10.8432   -2.3922    0.0000 C   0  0  0  0  0  0  0  0  0  0  0  0
    9.3432   -2.3922    0.0000 C   0  0  0  0  0  0  0  0  0  0  0  0
    8.5931   -1.0931    0.0000 C   0  0  0  0  0  0  0  0  0  0  0  0
    7.0931   -1.0931    0.0000 C   0  0  0  0  0  0  0  0  0  0  0  0
    6.3430    0.2059    0.0000 C   0  0  0  0  0  0  0  0  0  0  0  0
    7.0931    1.5049    0.0000 O   0  0  0  0  0  0  0  0  0  0  0  0
    4.8431    0.2059    0.0000 C   0  0  0  0  0  0  0  0  0  0  0  0
    3.5442   -0.5441    0.0000 O   0  0  0  0  0  0  0  0  0  0  0  0
    3.5442    0.9559    0.0000 C   0  0  0  0  0  0  0  0  0  0  0  0
    2.7941    2.2549    0.0000 C   0  0  0  0  0  0  0  0  0  0  0  0
    3.5442    3.5540    0.0000 O   0  0  0  0  0  0  0  0  0  0  0  0
    1.2941    2.2549    0.0000 N   0  0  0  0  0  0  0  0  0  0  0  0
  1  2  1  0  0  0  0
  2  3  2  0  0  0  0
  3  4  1  0  0  0  0
  4  5  1  0  0  0  0
  5  6  2  0  0  0  0
  6  7  1  0  0  0  0
  7  8  1  0  0  0  0
  8  9  1  0  0  0  0
  9 10  2  0  0  0  0
  9 11  1  0  0  0  0
 12 11  1  0  0  0  0
 11 13  1  0  0  0  0
 13 12  1  0  0  0  0
 13 14  1  0  0  0  0
 14 15  2  0  0  0  0
 14 16  1  0  0  0  0
M  END
> <Inchi_key>
GVEZIHKRYBHEFX-OHAITUNLSA-N

> <Source>
Mulliner

> <ID>
HT0437

> <H_MFHB>
0

> <CAS>


> <Cholestasis>


> <Name>
cerulenin

> <Class>
0

$$$$