
  -INDIGO-08031710012D

 48 49  0  0  0  0  0  0  0  0999 V2000
   24.4245   -5.2447    0.0000 N   0  0  0  0  0  0  0  0  0  0  0  0
   23.1817   -6.0850    0.0000 C   0  0  0  0  0  0  0  0  0  0  0  0
   21.8330   -5.4287    0.0000 C   0  0  0  0  0  0  0  0  0  0  0  0
   20.5902   -6.2687    0.0000 C   0  0  0  0  0  0  0  0  0  0  0  0
   19.2415   -5.6125    0.0000 C   0  0  0  0  0  0  0  0  0  0  0  0
   19.1352   -4.1162    0.0000 N   0  0  0  0  0  0  0  0  0  0  0  0
   17.9988   -6.4525    0.0000 C   0  0  0  0  0  0  0  0  0  0  0  0
   16.6497   -5.7963    0.0000 C   0  0  0  0  0  0  0  0  0  0  0  0
   16.5437   -4.3000    0.0000 O   0  0  0  0  0  0  0  0  0  0  0  0
   15.4073   -6.6363    0.0000 N   0  0  0  0  0  0  0  0  0  0  0  0
   14.0582   -5.9803    0.0000 C   0  0  0  0  0  0  0  0  0  0  0  0
   12.7960   -6.8145    0.0000 C   0  0  0  0  0  0  0  0  0  0  0  0
   12.8852   -8.2935    0.0000 N   0  0  0  0  0  0  0  0  0  0  0  0
   11.7968   -9.2251    0.0000 C   0  0  0  0  0  0  0  0  0  0  0  0
   12.2181  -10.6647    0.0000 O   0  0  0  0  0  0  0  0  0  0  0  0
   10.3776   -9.0270    0.0000 C   0  0  0  0  0  0  0  0  0  0  0  0
    9.6579   -7.7319    0.0000 N   0  0  0  0  0  0  0  0  0  0  0  0
    8.1452   -7.7068    0.0000 C   0  0  0  0  0  0  0  0  0  0  0  0
    7.3603   -8.9853    0.0000 O   0  0  0  0  0  0  0  0  0  0  0  0
    7.4409   -6.3747    0.0000 C   0  0  0  0  0  0  0  0  0  0  0  0
    5.9418   -6.3239    0.0000 C   0  0  0  0  0  0  0  0  0  0  0  0
    5.1483   -7.5967    0.0000 N   0  0  0  0  0  0  0  0  0  0  0  0
    3.6491   -7.5459    0.0000 C   0  0  0  0  0  0  0  0  0  0  0  0
    2.9435   -6.2223    0.0000 O   0  0  0  0  0  0  0  0  0  0  0  0
    2.8556   -8.8187    0.0000 N   0  0  0  0  0  0  0  0  0  0  0  0
    8.2183   -5.1154    0.0000 N   0  0  0  0  0  0  0  0  0  0  0  0
    7.5235   -3.7726    0.0000 C   0  0  0  0  0  0  0  0  0  0  0  0
    6.0300   -3.6331    0.0000 O   0  0  0  0  0  0  0  0  0  0  0  0
    8.4855   -2.5434    0.0000 C   0  0  0  0  0  0  0  0  0  0  0  0
    7.9807   -1.1308    0.0000 C   0  0  0  0  0  0  0  0  0  0  0  0
    6.5052   -0.8616    0.0000 O   0  0  0  0  0  0  0  0  0  0  0  0
    9.9416   -2.8700    0.0000 N   0  0  0  0  0  0  0  0  0  0  0  0
   10.9928   -1.8095    0.0000 C   0  0  0  0  0  0  0  0  0  0  0  0
   10.6564   -0.3477    0.0000 O   0  0  0  0  0  0  0  0  0  0  0  0
   12.4662   -2.3269    0.0000 C   0  0  0  0  0  0  0  0  0  0  0  0
   13.6498   -1.4053    0.0000 C   0  0  0  0  0  0  0  0  0  0  0  0
   13.4434    0.0805    0.0000 O   0  0  0  0  0  0  0  0  0  0  0  0
   12.6022   -3.8328    0.0000 N   0  0  0  0  0  0  0  0  0  0  0  0
   13.9361   -4.4788    0.0000 C   0  0  0  0  0  0  0  0  0  0  0  0
   15.1736   -3.6311    0.0000 O   0  0  0  0  0  0  0  0  0  0  0  0
    9.5292  -10.2640    0.0000 C   0  0  0  0  0  0  0  0  0  0  0  0
    8.0337  -10.1478    0.0000 C   0  0  0  0  0  0  0  0  0  0  0  0
    7.1852  -11.3851    0.0000 C   0  0  0  0  0  0  0  0  0  0  0  0
    5.6897  -11.2689    0.0000 O   0  0  0  0  0  0  0  0  0  0  0  0
    7.8326  -12.7381    0.0000 N   0  0  0  0  0  0  0  0  0  0  0  0
    9.3281  -12.8543    0.0000 C   0  0  0  0  0  0  0  0  0  0  0  0
    9.9751  -14.2076    0.0000 N   0  0  0  0  0  0  0  0  0  0  0  0
   10.1762  -11.6173    0.0000 N   0  0  0  0  0  0  0  0  0  0  0  0
  1  2  1  0  0  0  0
  2  3  1  0  0  0  0
  3  4  1  0  0  0  0
  4  5  1  0  0  0  0
  5  6  1  0  0  0  0
  5  7  1  0  0  0  0
  7  8  1  0  0  0  0
  8  9  2  0  0  0  0
  8 10  1  0  0  0  0
 10 11  1  0  0  0  0
 12 11  1  0  0  0  0
 11 39  1  0  0  0  0
 13 12  1  0  0  0  0
 14 13  1  0  0  0  0
 14 15  2  0  0  0  0
 16 14  1  0  0  0  0
 17 16  1  0  0  0  0
 16 41  1  0  0  0  0
 18 17  1  0  0  0  0
 18 19  2  0  0  0  0
 20 18  1  0  0  0  0
 20 21  2  0  0  0  0
 26 20  1  0  0  0  0
 21 22  1  0  0  0  0
 22 23  1  0  0  0  0
 23 24  2  0  0  0  0
 23 25  1  0  0  0  0
 27 26  1  0  0  0  0
 27 28  2  0  0  0  0
 29 27  1  0  0  0  0
 29 30  1  0  0  0  0
 32 29  1  0  0  0  0
 30 31  1  0  0  0  0
 33 32  1  0  0  0  0
 33 34  2  0  0  0  0
 35 33  1  0  0  0  0
 35 36  1  0  0  0  0
 38 35  1  0  0  0  0
 36 37  1  0  0  0  0
 39 38  1  0  0  0  0
 39 40  2  0  0  0  0
 42 41  1  0  0  0  0
 41 48  1  0  0  0  0
 43 42  1  0  0  0  0
 43 44  1  0  0  0  0
 45 43  1  0  0  0  0
 46 45  2  0  0  0  0
 46 47  1  0  0  0  0
 48 46  1  0  0  0  0
M  END
> <Inchi_key>
GXFAIFRPOKBQRV-NTUHNPAUSA-N

> <Source>
Mulliner

> <ID>
HT3987

> <H_MFHB>
0

> <CAS>


> <Cholestasis>


> <Name>


> <Class>
0

$$$$