

  -INDIGO-08031710012D

 16 16  0  0  0  0  0  0  0  0999 V2000
   10.3490    2.7730    0.0000 C   0  0  0  0  0  0  0  0  0  0  0  0
    9.0499    2.0230    0.0000 N   0  0  0  0  0  0  0  0  0  0  0  0
    9.0499    0.5230    0.0000 C   0  0  0  0  0  0  0  0  0  0  0  0
    7.7510    2.7730    0.0000 C   0  0  0  0  0  0  0  0  0  0  0  0
    7.7510    4.2730    0.0000 O   0  0  0  0  0  0  0  0  0  0  0  0
    6.4518    2.0230    0.0000 O   0  0  0  0  0  0  0  0  0  0  0  0
    5.1529    2.7730    0.0000 C   0  0  0  0  0  0  0  0  0  0  0  0
    5.1529    4.2730    0.0000 C   0  0  0  0  0  0  0  0  0  0  0  0
    3.8539    5.0230    0.0000 C   0  0  0  0  0  0  0  0  0  0  0  0
    2.5548    4.2730    0.0000 C   0  0  0  0  0  0  0  0  0  0  0  0
    2.5548    2.7730    0.0000 C   0  0  0  0  0  0  0  0  0  0  0  0
    3.8539    2.0230    0.0000 C   0  0  0  0  0  0  0  0  0  0  0  0
    1.2558    2.0230    0.0000 N   0  0  0  0  0  0  0  0  0  0  0  0
    0.5058    3.3221    0.0000 C   0  0  0  0  0  0  0  0  0  0  0  0
    2.0058    0.7240    0.0000 C   0  0  0  0  0  0  0  0  0  0  0  0
   -0.0433    1.2730    0.0000 C   0  0  0  0  0  0  0  0  0  0  0  0
  1  2  1  0  0  0  0
  2  3  1  0  0  0  0
  2  4  1  0  0  0  0
  4  5  2  0  0  0  0
  4  6  1  0  0  0  0
  6  7  1  0  0  0  0
  8  7  2  0  0  0  0
  7 12  1  0  0  0  0
  9  8  1  0  0  0  0
 10  9  2  0  0  0  0
 11 10  1  0  0  0  0
 12 11  2  0  0  0  0
 11 13  1  0  0  0  0
 13 14  1  0  0  0  0
 13 15  1  0  0  0  0
 13 16  1  0  0  0  0
M  CHG  1  13   1
M  END
> <Inchi_key>
ALWKGYPQUAPLQC-UHFFFAOYSA-N

> <Source>
Mulliner

> <ID>
HT1475

> <H_MFHB>
0

> <CAS>


> <Cholestasis>


> <Name>
neostigmine

> <Class>
0


$$$$