

  -INDIGO-08031710012D

 25 28  0  0  0  0  0  0  0  0999 V2000
    1.7834    3.0768    0.0000 C   0  0  0  0  0  0  0  0  0  0  0  0
    2.5291    1.7752    0.0000 C   0  0  0  0  0  0  0  0  0  0  0  0
    4.0290    1.7701    0.0000 C   0  0  0  0  0  0  0  0  0  0  0  0
    4.7745    0.4685    0.0000 C   0  0  0  0  0  0  0  0  0  0  0  0
    6.2745    0.4634    0.0000 C   0  0  0  0  0  0  0  0  0  0  0  0
    7.2820    1.5747    0.0000 C   0  0  0  0  0  0  0  0  0  0  0  0
    8.6502    0.9599    0.0000 C   0  0  0  0  0  0  0  0  0  0  0  0
    8.4884   -0.5313    0.0000 C   0  0  0  0  0  0  0  0  0  0  0  0
    9.5995   -1.5388    0.0000 C   0  0  0  0  0  0  0  0  0  0  0  0
    9.2827   -3.0050    0.0000 O   0  0  0  0  0  0  0  0  0  0  0  0
   11.0278   -1.0802    0.0000 C   0  0  0  0  0  0  0  0  0  0  0  0
    7.0202   -0.8382    0.0000 C   0  0  0  0  0  0  0  0  0  0  0  0
    7.8763   -2.0698    0.0000 C   0  0  0  0  0  0  0  0  0  0  0  0
    6.2658   -2.1347    0.0000 C   0  0  0  0  0  0  0  0  0  0  0  0
    4.7656   -2.1295    0.0000 C   0  0  0  0  0  0  0  0  0  0  0  0
    4.0112   -3.4260    0.0000 O   0  0  0  0  0  0  0  0  0  0  0  0
    4.0201   -0.8279    0.0000 C   0  0  0  0  0  0  0  0  0  0  0  0
    2.5201   -0.8228    0.0000 C   0  0  0  0  0  0  0  0  0  0  0  0
    1.0202   -0.8177    0.0000 C   0  0  0  0  0  0  0  0  0  0  0  0
    1.7657   -2.1193    0.0000 C   0  0  0  0  0  0  0  0  0  0  0  0
    0.2658   -2.1142    0.0000 C   0  0  0  0  0  0  0  0  0  0  0  0
   -0.4800   -0.8126    0.0000 C   0  0  0  0  0  0  0  0  0  0  0  0
   -1.9799   -0.8074    0.0000 O   0  0  0  0  0  0  0  0  0  0  0  0
    0.2747    0.4839    0.0000 C   0  0  0  0  0  0  0  0  0  0  0  0
    1.7746    0.4788    0.0000 C   0  0  0  0  0  0  0  0  0  0  0  0
  1  2  1  0  0  0  0
  3  2  1  0  0  0  0
  2 25  1  0  0  0  0
  4  3  1  0  0  0  0
  5  4  1  0  0  0  0
  4 17  1  0  0  0  0
  6  5  1  0  0  0  0
  5 12  1  0  0  0  0
  7  6  1  0  0  0  0
  8  7  1  0  0  0  0
  8  9  1  0  0  0  0
 12  8  1  0  0  0  0
  9 10  2  0  0  0  0
  9 11  1  0  0  0  0
 12 13  1  0  0  0  0
 14 12  1  0  0  0  0
 15 14  1  0  0  0  0
 15 16  1  0  0  0  0
 17 15  1  0  0  0  0
 18 17  1  0  0  0  0
 18 19  1  0  0  0  0
 20 18  1  0  0  0  0
 18 25  1  0  0  0  0
 21 20  1  0  0  0  0
 22 21  1  0  0  0  0
 22 23  2  0  0  0  0
 24 22  1  0  0  0  0
 25 24  2  0  0  0  0
M  END
> <Inchi_key>
GZENKSODFLBBHQ-UHFFFAOYSA-N

> <Source>
Mulliner , Kotsampasakou

> <ID>
EK0317;HT1287

> <H_MFHB>
0

> <CAS>


> <Cholestasis>
0

> <Name>
medrysone

> <Class>
0


$$$$