

  -INDIGO-08031710012D

 19 22  0  0  0  0  0  0  0  0999 V2000
    1.7508    2.0880    0.0000 C   0  0  0  0  0  0  0  0  0  0  0  0
    2.9702    1.2144    0.0000 N   0  0  0  0  0  0  0  0  0  0  0  0
    2.8233   -0.2784    0.0000 C   0  0  0  0  0  0  0  0  0  0  0  0
    4.0427   -1.1520    0.0000 C   0  0  0  0  0  0  0  0  0  0  0  0
    4.0379    0.3798    0.0000 C   0  0  0  0  0  0  0  0  0  0  0  0
    4.6178   -0.4042    0.0000 C   0  0  0  0  0  0  0  0  0  0  0  0
    4.6290   -2.8303    0.0000 C   0  0  0  0  0  0  0  0  0  0  0  0
    6.0761   -3.2739    0.0000 C   0  0  0  0  0  0  0  0  0  0  0  0
    7.2871   -3.9540    0.0000 C   0  0  0  0  0  0  0  0  0  0  0  0
    8.4774   -3.2500    0.0000 C   0  0  0  0  0  0  0  0  0  0  0  0
    8.4657   -1.8607    0.0000 C   0  0  0  0  0  0  0  0  0  0  0  0
    7.2605   -1.1727    0.0000 C   0  0  0  0  0  0  0  0  0  0  0  0
    6.0619   -1.8837    0.0000 C   0  0  0  0  0  0  0  0  0  0  0  0
    2.8538   -3.2789    0.0000 C   0  0  0  0  0  0  0  0  0  0  0  0
    1.6638   -3.9821    0.0000 C   0  0  0  0  0  0  0  0  0  0  0  0
    0.4497   -3.3021    0.0000 C   0  0  0  0  0  0  0  0  0  0  0  0
    0.4355   -1.9110    0.0000 C   0  0  0  0  0  0  0  0  0  0  0  0
    1.6359   -1.2016    0.0000 C   0  0  0  0  0  0  0  0  0  0  0  0
    2.8397   -1.8887    0.0000 C   0  0  0  0  0  0  0  0  0  0  0  0
  1  2  1  0  0  0  0
  2  3  1  0  0  0  0
  3  4  1  0  0  0  0
  5  4  1  0  0  0  0
 13  4  1  0  0  0  0
  4 19  1  0  0  0  0
  6  5  1  0  0  0  0
  7  6  1  0  0  0  0
  7  8  1  0  0  0  0
 14  7  1  0  0  0  0
  9  8  2  0  0  0  0
  8 13  1  0  0  0  0
 10  9  1  0  0  0  0
 11 10  2  0  0  0  0
 12 11  1  0  0  0  0
 13 12  2  0  0  0  0
 15 14  2  0  0  0  0
 14 19  1  0  0  0  0
 16 15  1  0  0  0  0
 17 16  2  0  0  0  0
 18 17  1  0  0  0  0
 19 18  2  0  0  0  0
M  END
> <Inchi_key>
GNRXCIONJWKSEA-UHFFFAOYSA-N

> <Source>
Mulliner

> <ID>
HT3094

> <H_MFHB>
0

> <CAS>


> <Cholestasis>


> <Name>


> <Class>
0


$$$$