
  -INDIGO-08031710012D

 13 12  0  0  0  0  0  0  0  0999 V2000
   -0.4582    1.7101    0.0000 C   0  0  0  0  0  0  0  0  0  0  0  0
    0.8408    2.4601    0.0000 C   0  0  0  0  0  0  0  0  0  0  0  0
    2.1398    1.7101    0.0000 C   0  0  0  0  0  0  0  0  0  0  0  0
    2.1398    0.2101    0.0000 C   0  0  0  0  0  0  0  0  0  0  0  0
    3.4389    2.4601    0.0000 C   0  0  0  0  0  0  0  0  0  0  0  0
    3.4389    3.9601    0.0000 C   0  0  0  0  0  0  0  0  0  0  0  0
    2.1398    4.7101    0.0000 C   0  0  0  0  0  0  0  0  0  0  0  0
    4.7379    1.7101    0.0000 C   0  0  0  0  0  0  0  0  0  0  0  0
    4.7379    0.2101    0.0000 O   0  0  0  0  0  0  0  0  0  0  0  0
    6.0371    2.4601    0.0000 N   0  0  0  0  0  0  0  0  0  0  0  0
    7.3359    1.7101    0.0000 C   0  0  0  0  0  0  0  0  0  0  0  0
    8.6351    2.4601    0.0000 O   0  0  0  0  0  0  0  0  0  0  0  0
    7.3359    0.2101    0.0000 N   0  0  0  0  0  0  0  0  0  0  0  0
  1  2  1  0  0  0  0
  2  3  1  0  0  0  0
  3  4  1  0  0  0  0
  3  5  1  0  0  0  0
  5  6  1  0  0  0  0
  5  8  1  0  0  0  0
  6  7  1  0  0  0  0
  8  9  2  0  0  0  0
  8 10  1  0  0  0  0
 10 11  1  0  0  0  0
 11 12  2  0  0  0  0
 11 13  1  0  0  0  0
M  END
> <Inchi_key>
HLSLSXBFTXUKCY-UHFFFAOYSA-N

> <Source>
Mulliner

> <ID>
HT2804

> <H_MFHB>
0

> <CAS>


> <Cholestasis>


> <Name>


> <Class>
0

$$$$