
  -INDIGO-08031710012D

 22 23  0  0  0  0  0  0  0  0999 V2000
    1.2256    1.2255    0.0000 C   0  0  0  0  0  0  0  0  0  0  0  0
    1.2256   -0.2745    0.0000 C   0  0  0  0  0  0  0  0  0  0  0  0
   -0.0735   -1.0245    0.0000 C   0  0  0  0  0  0  0  0  0  0  0  0
   -1.3726   -0.2745    0.0000 C   0  0  0  0  0  0  0  0  0  0  0  0
   -1.3726    1.2255    0.0000 C   0  0  0  0  0  0  0  0  0  0  0  0
   -2.6715    1.9755    0.0000 C   0  0  0  0  0  0  0  0  0  0  0  0
   -3.9706    1.2255    0.0000 C   0  0  0  0  0  0  0  0  0  0  0  0
   -5.2697    1.9755    0.0000 O   0  0  0  0  0  0  0  0  0  0  0  0
   -3.9706   -0.2745    0.0000 C   0  0  0  0  0  0  0  0  0  0  0  0
   -5.2697   -1.0245    0.0000 O   0  0  0  0  0  0  0  0  0  0  0  0
   -2.6715   -1.0245    0.0000 C   0  0  0  0  0  0  0  0  0  0  0  0
    2.5244   -1.0245    0.0000 C   0  0  0  0  0  0  0  0  0  0  0  0
    2.5244   -2.5245    0.0000 C   0  0  0  0  0  0  0  0  0  0  0  0
    3.8235   -0.2745    0.0000 C   0  0  0  0  0  0  0  0  0  0  0  0
    5.1226   -1.0245    0.0000 C   0  0  0  0  0  0  0  0  0  0  0  0
    5.1226   -2.5245    0.0000 C   0  0  0  0  0  0  0  0  0  0  0  0
    6.4215   -3.2745    0.0000 C   0  0  0  0  0  0  0  0  0  0  0  0
    7.7206   -2.5245    0.0000 C   0  0  0  0  0  0  0  0  0  0  0  0
    9.0197   -3.2745    0.0000 O   0  0  0  0  0  0  0  0  0  0  0  0
    7.7206   -1.0245    0.0000 C   0  0  0  0  0  0  0  0  0  0  0  0
    9.0197   -0.2745    0.0000 O   0  0  0  0  0  0  0  0  0  0  0  0
    6.4215   -0.2745    0.0000 C   0  0  0  0  0  0  0  0  0  0  0  0
  1  2  1  0  0  0  0
  2  3  1  0  0  0  0
  2 12  1  0  0  0  0
  3  4  1  0  0  0  0
  5  4  2  0  0  0  0
  4 11  1  0  0  0  0
  6  5  1  0  0  0  0
  7  6  2  0  0  0  0
  7  8  1  0  0  0  0
  9  7  1  0  0  0  0
  9 10  1  0  0  0  0
 11  9  2  0  0  0  0
 12 13  1  0  0  0  0
 12 14  1  0  0  0  0
 14 15  1  0  0  0  0
 16 15  2  0  0  0  0
 15 22  1  0  0  0  0
 17 16  1  0  0  0  0
 18 17  2  0  0  0  0
 18 19  1  0  0  0  0
 20 18  1  0  0  0  0
 20 21  1  0  0  0  0
 22 20  2  0  0  0  0
M  END
> <Inchi_key>
HCZKYJDFEPMADG-UHFFFAOYSA-N

> <Source>
Mulliner , Kotsampasakou

> <ID>
EK0386;HT1273

> <H_MFHB>
0

> <CAS>


> <Cholestasis>
0

> <Name>
masoprocol;nordihydroguaiaretic acid

> <Class>
0

$$$$