
  -INDIGO-08031710012D

 18 18  0  0  0  0  0  0  0  0999 V2000
   -0.1999   -0.1999    0.0000 C   0  0  0  0  0  0  0  0  0  0  0  0
   -0.1999   -1.6999    0.0000 C   0  0  0  0  0  0  0  0  0  0  0  0
   -1.4990   -2.4499    0.0000 C   0  0  0  0  0  0  0  0  0  0  0  0
   -1.4990   -3.9499    0.0000 C   0  0  0  0  0  0  0  0  0  0  0  0
   -0.1999   -4.6999    0.0000 C   0  0  0  0  0  0  0  0  0  0  0  0
   -0.1999   -6.1999    0.0000 Cl  0  0  0  0  0  0  0  0  0  0  0  0
    1.0990   -3.9499    0.0000 C   0  0  0  0  0  0  0  0  0  0  0  0
    2.3981   -4.6999    0.0000 O   0  0  0  0  0  0  0  0  0  0  0  0
    3.6972   -3.9499    0.0000 C   0  0  0  0  0  0  0  0  0  0  0  0
    4.9962   -4.6999    0.0000 C   0  0  0  0  0  0  0  0  0  0  0  0
    4.9962   -6.1999    0.0000 O   0  0  0  0  0  0  0  0  0  0  0  0
    6.2953   -3.9499    0.0000 C   0  0  0  0  0  0  0  0  0  0  0  0
    7.5944   -4.6999    0.0000 N   0  0  0  0  0  0  0  0  0  0  0  0
    8.8933   -3.9499    0.0000 C   0  0  0  0  0  0  0  0  0  0  0  0
    8.1433   -2.6509    0.0000 C   0  0  0  0  0  0  0  0  0  0  0  0
    9.6433   -5.2490    0.0000 C   0  0  0  0  0  0  0  0  0  0  0  0
   10.1924   -3.1999    0.0000 C   0  0  0  0  0  0  0  0  0  0  0  0
    1.0990   -2.4499    0.0000 C   0  0  0  0  0  0  0  0  0  0  0  0
  1  2  1  0  0  0  0
  3  2  2  0  0  0  0
  2 18  1  0  0  0  0
  4  3  1  0  0  0  0
  5  4  2  0  0  0  0
  5  6  1  0  0  0  0
  7  5  1  0  0  0  0
  7  8  1  0  0  0  0
 18  7  2  0  0  0  0
  8  9  1  0  0  0  0
  9 10  1  0  0  0  0
 10 11  1  0  0  0  0
 10 12  1  0  0  0  0
 12 13  1  0  0  0  0
 13 14  1  0  0  0  0
 14 15  1  0  0  0  0
 14 16  1  0  0  0  0
 14 17  1  0  0  0  0
M  END
> <Inchi_key>
HQIRNZOQPUAHHV-UHFFFAOYSA-N

> <Source>
Mulliner

> <ID>
HT0328

> <H_MFHB>
0

> <CAS>


> <Cholestasis>


> <Name>
bupranolol

> <Class>
0

$$$$