
  -INDIGO-08031710012D

 31 35  0  0  0  0  0  0  0  0999 V2000
    0.4847   -5.2066    0.0000 F   0  0  0  0  0  0  0  0  0  0  0  0
    1.7381   -4.3828    0.0000 C   0  0  0  0  0  0  0  0  0  0  0  0
    1.6516   -2.8853    0.0000 C   0  0  0  0  0  0  0  0  0  0  0  0
    2.9050   -2.0615    0.0000 C   0  0  0  0  0  0  0  0  0  0  0  0
    4.2451   -2.7349    0.0000 C   0  0  0  0  0  0  0  0  0  0  0  0
    4.3318   -4.2326    0.0000 C   0  0  0  0  0  0  0  0  0  0  0  0
    3.0784   -5.0565    0.0000 C   0  0  0  0  0  0  0  0  0  0  0  0
    5.4987   -1.9112    0.0000 N   0  0  0  0  0  0  0  0  0  0  0  0
    6.9021   -2.4410    0.0000 C   0  0  0  0  0  0  0  0  0  0  0  0
    7.8396   -1.2701    0.0000 C   0  0  0  0  0  0  0  0  0  0  0  0
    9.3379   -1.3405    0.0000 C   0  0  0  0  0  0  0  0  0  0  0  0
   10.0261   -2.6731    0.0000 C   0  0  0  0  0  0  0  0  0  0  0  0
   11.5247   -2.7434    0.0000 C   0  0  0  0  0  0  0  0  0  0  0  0
   12.3345   -1.4810    0.0000 N   0  0  0  0  0  0  0  0  0  0  0  0
   13.8331   -1.5512    0.0000 C   0  0  0  0  0  0  0  0  0  0  0  0
   14.5213   -2.8840    0.0000 C   0  0  0  0  0  0  0  0  0  0  0  0
   16.0196   -2.9543    0.0000 N   0  0  0  0  0  0  0  0  0  0  0  0
   16.9571   -1.7832    0.0000 C   0  0  0  0  0  0  0  0  0  0  0  0
   18.3605   -2.3132    0.0000 C   0  0  0  0  0  0  0  0  0  0  0  0
   18.2901   -3.8115    0.0000 N   0  0  0  0  0  0  0  0  0  0  0  0
   16.8434   -4.2077    0.0000 C   0  0  0  0  0  0  0  0  0  0  0  0
   16.3137   -5.6110    0.0000 O   0  0  0  0  0  0  0  0  0  0  0  0
   11.6463   -0.1482    0.0000 C   0  0  0  0  0  0  0  0  0  0  0  0
   10.1480   -0.0779    0.0000 C   0  0  0  0  0  0  0  0  0  0  0  0
    7.0156   -0.0165    0.0000 C   0  0  0  0  0  0  0  0  0  0  0  0
    7.3958    1.4345    0.0000 C   0  0  0  0  0  0  0  0  0  0  0  0
    6.3296    2.4892    0.0000 C   0  0  0  0  0  0  0  0  0  0  0  0
    6.7098    3.9402    0.0000 Cl  0  0  0  0  0  0  0  0  0  0  0  0
    4.8828    2.0931    0.0000 C   0  0  0  0  0  0  0  0  0  0  0  0
    4.5026    0.6421    0.0000 C   0  0  0  0  0  0  0  0  0  0  0  0
    5.5691   -0.4128    0.0000 C   0  0  0  0  0  0  0  0  0  0  0  0
  1  2  1  0  0  0  0
  3  2  2  0  0  0  0
  2  7  1  0  0  0  0
  4  3  1  0  0  0  0
  5  4  2  0  0  0  0
  6  5  1  0  0  0  0
  5  8  1  0  0  0  0
  7  6  2  0  0  0  0
  9  8  1  0  0  0  0
  8 31  1  0  0  0  0
 10  9  2  0  0  0  0
 10 11  1  0  0  0  0
 25 10  1  0  0  0  0
 12 11  1  0  0  0  0
 11 24  1  0  0  0  0
 13 12  1  0  0  0  0
 14 13  1  0  0  0  0
 14 15  1  0  0  0  0
 23 14  1  0  0  0  0
 15 16  1  0  0  0  0
 16 17  1  0  0  0  0
 18 17  1  0  0  0  0
 17 21  1  0  0  0  0
 19 18  1  0  0  0  0
 20 19  1  0  0  0  0
 21 20  1  0  0  0  0
 21 22  2  0  0  0  0
 24 23  1  0  0  0  0
 26 25  1  0  0  0  0
 25 31  2  0  0  0  0
 27 26  2  0  0  0  0
 27 28  1  0  0  0  0
 29 27  1  0  0  0  0
 30 29  2  0  0  0  0
 31 30  1  0  0  0  0
M  END
> <Inchi_key>
GZKLJWGUPQBVJQ-UHFFFAOYSA-N

> <Source>
Mulliner

> <ID>
HT1880

> <H_MFHB>
0

> <CAS>


> <Cholestasis>


> <Name>
sertindole

> <Class>
0

$$$$