

  -INDIGO-08031710012D

 14 14  0  0  0  0  0  0  0  0999 V2000
    9.9784    2.6737    0.0000 Cl  0  0  0  0  0  0  0  0  0  0  0  0
    8.6794    1.9237    0.0000 C   0  0  0  0  0  0  0  0  0  0  0  0
    7.3803    2.6737    0.0000 C   0  0  0  0  0  0  0  0  0  0  0  0
    6.0811    1.9237    0.0000 N   0  0  0  0  0  0  0  0  0  0  0  0
    4.7822    2.6737    0.0000 P   0  0  0  0  0  0  0  0  0  0  0  0
    4.7822    1.1737    0.0000 O   0  0  0  0  0  0  0  0  0  0  0  0
    5.5322    3.9727    0.0000 O   0  0  0  0  0  0  0  0  0  0  0  0
    4.7822    5.2718    0.0000 C   0  0  0  0  0  0  0  0  0  0  0  0
    3.2823    5.2718    0.0000 C   0  0  0  0  0  0  0  0  0  0  0  0
    2.5321    3.9727    0.0000 C   0  0  0  0  0  0  0  0  0  0  0  0
    3.2823    2.6737    0.0000 N   0  0  0  0  0  0  0  0  0  0  0  0
    2.5321    1.3747    0.0000 C   0  0  0  0  0  0  0  0  0  0  0  0
    1.0322    1.3747    0.0000 C   0  0  0  0  0  0  0  0  0  0  0  0
    0.2822    0.0756    0.0000 Cl  0  0  0  0  0  0  0  0  0  0  0  0
  1  2  1  0  0  0  0
  2  3  1  0  0  0  0
  3  4  1  0  0  0  0
  4  5  1  0  0  0  0
  5  6  2  0  0  0  0
  7  5  1  0  0  0  0
  5 11  1  0  0  0  0
  8  7  1  0  0  0  0
  9  8  1  0  0  0  0
 10  9  1  0  0  0  0
 11 10  1  0  0  0  0
 11 12  1  0  0  0  0
 12 13  1  0  0  0  0
 13 14  1  0  0  0  0
M  END
> <Inchi_key>
HOMGKSMUEGBAAB-UHFFFAOYSA-N

> <Source>
Mulliner

> <ID>
HT1077

> <H_MFHB>
0

> <CAS>
3778-73-2;84711-20-6

> <Cholestasis>


> <Name>
ifosfamide

> <Class>
0


$$$$