
  -INDIGO-08031710012D

 25 29  0  0  0  0  0  0  0  0999 V2000
    0.7466   -2.6909    0.0000 O   0  0  0  0  0  0  0  0  0  0  0  0
    2.0321   -1.9180    0.0000 C   0  0  0  0  0  0  0  0  0  0  0  0
    2.0057   -0.4182    0.0000 C   0  0  0  0  0  0  0  0  0  0  0  0
    3.2912    0.3545    0.0000 C   0  0  0  0  0  0  0  0  0  0  0  0
    4.6034   -0.3723    0.0000 C   0  0  0  0  0  0  0  0  0  0  0  0
    4.6299   -1.8721    0.0000 C   0  0  0  0  0  0  0  0  0  0  0  0
    5.9419   -2.5989    0.0000 O   0  0  0  0  0  0  0  0  0  0  0  0
    7.2276   -1.8260    0.0000 C   0  0  0  0  0  0  0  0  0  0  0  0
    8.5396   -2.5529    0.0000 C   0  0  0  0  0  0  0  0  0  0  0  0
    9.8251   -1.7801    0.0000 C   0  0  0  0  0  0  0  0  0  0  0  0
   11.1373   -2.5070    0.0000 O   0  0  0  0  0  0  0  0  0  0  0  0
    9.7986   -0.2803    0.0000 C   0  0  0  0  0  0  0  0  0  0  0  0
    8.4865    0.4466    0.0000 C   0  0  0  0  0  0  0  0  0  0  0  0
    7.2009   -0.3263    0.0000 C   0  0  0  0  0  0  0  0  0  0  0  0
    5.8888    0.4006    0.0000 C   0  0  0  0  0  0  0  0  0  0  0  0
    7.3152    0.8645    0.0000 O   0  0  0  0  0  0  0  0  0  0  0  0
    7.3149    2.3645    0.0000 C   0  0  0  0  0  0  0  0  0  0  0  0
    8.5283    3.2465    0.0000 O   0  0  0  0  0  0  0  0  0  0  0  0
    5.8883    2.8277    0.0000 C   0  0  0  0  0  0  0  0  0  0  0  0
    5.2779    4.1978    0.0000 C   0  0  0  0  0  0  0  0  0  0  0  0
    3.7860    4.3543    0.0000 C   0  0  0  0  0  0  0  0  0  0  0  0
    2.9046    3.1405    0.0000 C   0  0  0  0  0  0  0  0  0  0  0  0
    3.5151    1.7704    0.0000 C   0  0  0  0  0  0  0  0  0  0  0  0
    5.0069    1.6139    0.0000 C   0  0  0  0  0  0  0  0  0  0  0  0
    3.3443   -2.6449    0.0000 C   0  0  0  0  0  0  0  0  0  0  0  0
  1  2  1  0  0  0  0
  3  2  2  0  0  0  0
  2 25  1  0  0  0  0
  4  3  1  0  0  0  0
  5  4  2  0  0  0  0
  5  6  1  0  0  0  0
 15  5  1  0  0  0  0
  6  7  1  0  0  0  0
 25  6  2  0  0  0  0
  7  8  1  0  0  0  0
  9  8  2  0  0  0  0
  8 14  1  0  0  0  0
 10  9  1  0  0  0  0
 10 11  1  0  0  0  0
 12 10  2  0  0  0  0
 13 12  1  0  0  0  0
 14 13  2  0  0  0  0
 14 15  1  0  0  0  0
 16 15  1  0  0  0  0
 15 24  1  0  0  0  0
 17 16  1  0  0  0  0
 17 18  2  0  0  0  0
 19 17  1  0  0  0  0
 20 19  1  0  0  0  0
 19 24  2  0  0  0  0
 21 20  2  0  0  0  0
 22 21  1  0  0  0  0
 23 22  2  0  0  0  0
 24 23  1  0  0  0  0
M  END
> <Inchi_key>
GNBHRKFJIUUOQI-UHFFFAOYSA-N

> <Source>
Mulliner , Kotsampasakou

> <ID>
EK0224;HT0906

> <H_MFHB>
0

> <CAS>


> <Cholestasis>
0

> <Name>
fluorescein

> <Class>
0

$$$$