

  -INDIGO-08031710012D

 23 26  0  0  0  0  0  0  0  0999 V2000
    4.0906    1.6979    0.0000 N   0  0  0  0  0  0  0  0  0  0  0  0
    4.0173    0.1997    0.0000 C   0  0  0  0  0  0  0  0  0  0  0  0
    2.6833   -0.4861    0.0000 C   0  0  0  0  0  0  0  0  0  0  0  0
    1.4224    0.3264    0.0000 C   0  0  0  0  0  0  0  0  0  0  0  0
    0.2601   -0.6217    0.0000 N   0  0  0  0  0  0  0  0  0  0  0  0
    2.8296    2.5104    0.0000 C   0  0  0  0  0  0  0  0  0  0  0  0
    1.4956    1.8246    0.0000 N   0  0  0  0  0  0  0  0  0  0  0  0
    5.2783   -0.6128    0.0000 C   0  0  0  0  0  0  0  0  0  0  0  0
    6.6768   -0.0703    0.0000 C   0  0  0  0  0  0  0  0  0  0  0  0
    5.3623   -2.1105    0.0000 C   0  0  0  0  0  0  0  0  0  0  0  0
    7.6248   -1.2326    0.0000 N   0  0  0  0  0  0  0  0  0  0  0  0
    6.8124   -2.4935    0.0000 N   0  0  0  0  0  0  0  0  0  0  0  0
    9.1225   -1.1487    0.0000 C   0  0  0  0  0  0  0  0  0  0  0  0
    9.7988    0.1901    0.0000 C   0  0  0  0  0  0  0  0  0  0  0  0
    9.9440   -2.4039    0.0000 C   0  0  0  0  0  0  0  0  0  0  0  0
   11.2964    0.2740    0.0000 C   0  0  0  0  0  0  0  0  0  0  0  0
    9.4113   -3.8061    0.0000 C   0  0  0  0  0  0  0  0  0  0  0  0
   11.4421   -2.4770    0.0000 C   0  0  0  0  0  0  0  0  0  0  0  0
   12.7941    0.3578    0.0000 N   0  0  0  0  0  0  0  0  0  0  0  0
   10.5805   -4.7460    0.0000 C   0  0  0  0  0  0  0  0  0  0  0  0
   11.8355   -3.9245    0.0000 C   0  0  0  0  0  0  0  0  0  0  0  0
    2.3002   -1.9363    0.0000 C   0  0  0  0  0  0  0  0  0  0  0  0
    0.8027   -2.0202    0.0000 C   0  0  0  0  0  0  0  0  0  0  0  0
  2  1  2  0  0  0  0
  3  2  1  0  0  0  0
  3  4  2  0  0  0  0
  4  5  1  0  0  0  0
  1  6  1  0  0  0  0
  6  7  2  0  0  0  0
  7  4  1  0  0  0  0
  2  8  1  0  0  0  0
  9  8  2  0  0  0  0
  8 10  1  0  0  0  0
 11  9  1  0  0  0  0
 10 12  2  0  0  0  0
 11 13  1  0  0  0  0
 12 11  1  0  0  0  0
 13 14  1  0  0  0  0
 13 15  1  0  0  0  0
 14 16  1  0  0  0  0
 17 15  1  0  0  0  0
 15 18  1  0  0  0  0
 16 19  3  0  0  0  0
 20 17  1  0  0  0  0
 18 21  1  0  0  0  0
 21 20  1  0  0  0  0
 22  3  1  0  0  0  0
 23 22  2  0  0  0  0
  5 23  1  0  0  0  0
M  END
> <Inchi_key>
HFNKQEVNSGCOJV-UHFFFAOYSA-N

> <Source>
Mulliner

> <ID>
HT1858

> <H_MFHB>
0

> <CAS>


> <Cholestasis>


> <Name>
ruxolitinib phosphate

> <Class>
0


$$$$