
  -INDIGO-08031710012D

  8  7  0  0  0  0  0  0  0  0999 V2000
    1.6876    1.6875    0.0000 C   0  0  0  0  0  0  0  0  0  0  0  0
    1.6876    0.1875    0.0000 N   0  0  0  0  0  0  0  0  0  0  0  0
    2.9865   -0.5625    0.0000 C   0  0  0  0  0  0  0  0  0  0  0  0
    4.2856    0.1875    0.0000 C   0  0  0  0  0  0  0  0  0  0  0  0
    5.5846   -0.5625    0.0000 Cl  0  0  0  0  0  0  0  0  0  0  0  0
    0.3885   -0.5625    0.0000 C   0  0  0  0  0  0  0  0  0  0  0  0
   -0.9106    0.1875    0.0000 C   0  0  0  0  0  0  0  0  0  0  0  0
   -2.2096   -0.5625    0.0000 Cl  0  0  0  0  0  0  0  0  0  0  0  0
  1  2  1  0  0  0  0
  2  3  1  0  0  0  0
  2  6  1  0  0  0  0
  3  4  1  0  0  0  0
  4  5  1  0  0  0  0
  6  7  1  0  0  0  0
  7  8  1  0  0  0  0
M  END
> <Inchi_key>
HAWPXGHAZFHHAD-UHFFFAOYSA-N

> <Source>
Mulliner , Kotsampasakou

> <ID>
EK0117;HT1281

> <H_MFHB>
0

> <CAS>


> <Cholestasis>
0

> <Name>
mechlorethamine;mechlorethamine hydrochloride;nitrogen mustard;chlormethine

> <Class>
0

$$$$