

  -INDIGO-08031710012D

 55 63  0  0  0  0  0  0  0  0999 V2000
   14.9000   -7.9395    0.0000 C   0  0  0  0  0  0  0  0  0  0  0  0
   14.0409   -9.1665    0.0000 C   0  0  0  0  0  0  0  0  0  0  0  0
   12.5402   -9.0287    0.0000 C   0  0  0  0  0  0  0  0  0  0  0  0
   13.1662  -10.3917    0.0000 O   0  0  0  0  0  0  0  0  0  0  0  0
   11.2141   -9.6175    0.0000 C   0  0  0  0  0  0  0  0  0  0  0  0
   10.0006   -8.7713    0.0000 C   0  0  0  0  0  0  0  0  0  0  0  0
   10.1834   -7.3105    0.0000 C   0  0  0  0  0  0  0  0  0  0  0  0
   11.5358   -6.6951    0.0000 N   0  0  0  0  0  0  0  0  0  0  0  0
   11.4141   -5.0812    0.0000 C   0  0  0  0  0  0  0  0  0  0  0  0
    9.9192   -4.6232    0.0000 C   0  0  0  0  0  0  0  0  0  0  0  0
    8.6973   -5.4173    0.0000 C   0  0  0  0  0  0  0  0  0  0  0  0
    7.8459   -6.5406    0.0000 C   0  0  0  0  0  0  0  0  0  0  0  0
    6.4351   -6.1233    0.0000 N   0  0  0  0  0  0  0  0  0  0  0  0
    6.4075   -4.6208    0.0000 C   0  0  0  0  0  0  0  0  0  0  0  0
    5.2713   -3.6372    0.0000 C   0  0  0  0  0  0  0  0  0  0  0  0
    5.5609   -2.1649    0.0000 C   0  0  0  0  0  0  0  0  0  0  0  0
    6.9780   -1.6773    0.0000 C   0  0  0  0  0  0  0  0  0  0  0  0
    8.1119   -2.6617    0.0000 C   0  0  0  0  0  0  0  0  0  0  0  0
    7.8186   -4.1348    0.0000 C   0  0  0  0  0  0  0  0  0  0  0  0
    7.4690   -7.9500    0.0000 C   0  0  0  0  0  0  0  0  0  0  0  0
    8.4618   -9.2004    0.0000 C   0  0  0  0  0  0  0  0  0  0  0  0
    5.9999   -7.9911    0.0000 C   0  0  0  0  0  0  0  0  0  0  0  0
    5.4084   -9.5340    0.0000 O   0  0  0  0  0  0  0  0  0  0  0  0
    5.0498   -6.9735    0.0000 O   0  0  0  0  0  0  0  0  0  0  0  0
    5.0076   -5.5433    0.0000 C   0  0  0  0  0  0  0  0  0  0  0  0
    6.2391   -8.8050    0.0000 C   0  0  0  0  0  0  0  0  0  0  0  0
    4.8384   -8.3400    0.0000 C   0  0  0  0  0  0  0  0  0  0  0  0
    3.6759   -9.3039    0.0000 C   0  0  0  0  0  0  0  0  0  0  0  0
    3.9486  -10.7713    0.0000 C   0  0  0  0  0  0  0  0  0  0  0  0
    5.3641  -11.2726    0.0000 C   0  0  0  0  0  0  0  0  0  0  0  0
    6.5059  -10.3382    0.0000 C   0  0  0  0  0  0  0  0  0  0  0  0
    7.6666  -11.2485    0.0000 O   0  0  0  0  0  0  0  0  0  0  0  0
    7.5000  -12.7389    0.0000 C   0  0  0  0  0  0  0  0  0  0  0  0
    2.6338  -11.4939    0.0000 N   0  0  0  0  0  0  0  0  0  0  0  0
    2.4802  -12.9878    0.0000 C   0  0  0  0  0  0  0  0  0  0  0  0
    1.5341  -10.4808    0.0000 C   0  0  0  0  0  0  0  0  0  0  0  0
    0.0417  -10.5918    0.0000 C   0  0  0  0  0  0  0  0  0  0  0  0
   -1.2465  -11.3650    0.0000 O   0  0  0  0  0  0  0  0  0  0  0  0
   -0.8055   -9.3397    0.0000 C   0  0  0  0  0  0  0  0  0  0  0  0
   -2.3030   -9.4796    0.0000 O   0  0  0  0  0  0  0  0  0  0  0  0
   -0.1610   -7.9798    0.0000 C   0  0  0  0  0  0  0  0  0  0  0  0
   -1.6555   -8.0237    0.0000 C   0  0  0  0  0  0  0  0  0  0  0  0
   -2.4820   -6.7919    0.0000 C   0  0  0  0  0  0  0  0  0  0  0  0
   -0.9309   -6.6784    0.0000 C   0  0  0  0  0  0  0  0  0  0  0  0
   -0.2190   -5.3631    0.0000 C   0  0  0  0  0  0  0  0  0  0  0  0
    1.2843   -5.3303    0.0000 C   0  0  0  0  0  0  0  0  0  0  0  0
    2.0659   -6.6288    0.0000 N   0  0  0  0  0  0  0  0  0  0  0  0
    3.5319   -7.0455    0.0000 C   0  0  0  0  0  0  0  0  0  0  0  0
    3.6059   -8.5482    0.0000 C   0  0  0  0  0  0  0  0  0  0  0  0
    2.1919   -9.1042    0.0000 C   0  0  0  0  0  0  0  0  0  0  0  0
    1.3310   -7.9074    0.0000 C   0  0  0  0  0  0  0  0  0  0  0  0
    0.0374  -12.0886    0.0000 C   0  0  0  0  0  0  0  0  0  0  0  0
   -1.2996  -12.8202    0.0000 O   0  0  0  0  0  0  0  0  0  0  0  0
    1.2896  -12.8763    0.0000 N   0  0  0  0  0  0  0  0  0  0  0  0
   12.6957   -7.5703    0.0000 C   0  0  0  0  0  0  0  0  0  0  0  0
  1  2  1  0  0  0  0
  2  3  1  0  0  0  0
  3  4  1  0  0  0  0
  5  3  1  0  0  0  0
  3 55  1  0  0  0  0
  6  5  1  0  0  0  0
  6  7  1  0  0  0  0
 21  6  1  0  0  0  0
  7  8  1  0  0  0  0
  8  9  1  0  0  0  0
 55  8  1  0  0  0  0
  9 10  1  0  0  0  0
 10 11  1  0  0  0  0
 12 11  2  0  0  0  0
 11 19  1  0  0  0  0
 13 12  1  0  0  0  0
 12 20  1  0  0  0  0
 14 13  1  0  0  0  0
 15 14  1  0  0  0  0
 14 19  2  0  0  0  0
 16 15  2  0  0  0  0
 17 16  1  0  0  0  0
 18 17  2  0  0  0  0
 19 18  1  0  0  0  0
 20 21  1  0  0  0  0
 20 22  1  0  0  0  0
 20 26  1  0  0  0  0
 22 23  2  0  0  0  0
 22 24  1  0  0  0  0
 24 25  1  0  0  0  0
 27 26  2  0  0  0  0
 26 31  1  0  0  0  0
 28 27  1  0  0  0  0
 28 29  2  0  0  0  0
 50 28  1  0  0  0  0
 30 29  1  0  0  0  0
 29 34  1  0  0  0  0
 31 30  2  0  0  0  0
 31 32  1  0  0  0  0
 32 33  1  0  0  0  0
 34 35  1  0  0  0  0
 34 36  1  0  0  0  0
 37 36  1  0  0  0  0
 36 50  1  0  0  0  0
 37 38  1  0  0  0  0
 39 37  1  0  0  0  0
 37 52  1  0  0  0  0
 39 40  1  0  0  0  0
 41 39  1  0  0  0  0
 41 42  1  0  0  0  0
 44 41  1  0  0  0  0
 41 51  1  0  0  0  0
 42 43  1  0  0  0  0
 45 44  2  0  0  0  0
 46 45  1  0  0  0  0
 47 46  1  0  0  0  0
 47 48  1  0  0  0  0
 51 47  1  0  0  0  0
 48 49  1  0  0  0  0
 49 50  1  0  0  0  0
 50 51  1  0  0  0  0
 52 53  2  0  0  0  0
 52 54  1  0  0  0  0
M  END
> <Inchi_key>
HHJUWIANJFBDHT-UHFFFAOYSA-N

> <Source>
Mulliner

> <ID>
HT2183

> <H_MFHB>
0

> <CAS>


> <Cholestasis>


> <Name>
vindesine

> <Class>
0


$$$$