

  -INDIGO-08031710012D

 30 34  0  0  0  0  0  0  0  0999 V2000
    1.9076   -0.9973    0.0000 C   0  0  0  0  0  0  0  0  0  0  0  0
    1.0515    0.2344    0.0000 C   0  0  0  0  0  0  0  0  0  0  0  0
    0.2970   -1.0620    0.0000 C   0  0  0  0  0  0  0  0  0  0  0  0
   -1.2030   -1.0568    0.0000 C   0  0  0  0  0  0  0  0  0  0  0  0
   -1.9483    0.2449    0.0000 C   0  0  0  0  0  0  0  0  0  0  0  0
   -1.1938    1.5413    0.0000 C   0  0  0  0  0  0  0  0  0  0  0  0
   -1.9394    2.8429    0.0000 C   0  0  0  0  0  0  0  0  0  0  0  0
   -3.4394    2.8482    0.0000 C   0  0  0  0  0  0  0  0  0  0  0  0
   -4.1939    1.5517    0.0000 C   0  0  0  0  0  0  0  0  0  0  0  0
   -5.6939    1.5570    0.0000 C   0  0  0  0  0  0  0  0  0  0  0  0
   -6.4484    0.2605    0.0000 C   0  0  0  0  0  0  0  0  0  0  0  0
   -7.9484    0.2657    0.0000 O   0  0  0  0  0  0  0  0  0  0  0  0
   -5.7028   -1.0411    0.0000 C   0  0  0  0  0  0  0  0  0  0  0  0
   -4.2028   -1.0463    0.0000 C   0  0  0  0  0  0  0  0  0  0  0  0
   -3.4483    0.2501    0.0000 C   0  0  0  0  0  0  0  0  0  0  0  0
   -2.7031   -1.0515    0.0000 C   0  0  0  0  0  0  0  0  0  0  0  0
    0.3062    1.5361    0.0000 C   0  0  0  0  0  0  0  0  0  0  0  0
    1.3135    2.6473    0.0000 C   0  0  0  0  0  0  0  0  0  0  0  0
    2.6817    2.0324    0.0000 C   0  0  0  0  0  0  0  0  0  0  0  0
    2.5198    0.5412    0.0000 C   0  0  0  0  0  0  0  0  0  0  0  0
    3.6311   -0.4664    0.0000 O   0  0  0  0  0  0  0  0  0  0  0  0
    5.0591   -0.0078    0.0000 C   0  0  0  0  0  0  0  0  0  0  0  0
    5.3762    1.4583    0.0000 O   0  0  0  0  0  0  0  0  0  0  0  0
    6.1704   -1.0154    0.0000 C   0  0  0  0  0  0  0  0  0  0  0  0
    7.5987   -0.5568    0.0000 C   0  0  0  0  0  0  0  0  0  0  0  0
    8.7100   -1.5644    0.0000 C   0  0  0  0  0  0  0  0  0  0  0  0
   10.1783   -1.2576    0.0000 C   0  0  0  0  0  0  0  0  0  0  0  0
   10.9236   -2.5593    0.0000 C   0  0  0  0  0  0  0  0  0  0  0  0
    9.9160   -3.6705    0.0000 C   0  0  0  0  0  0  0  0  0  0  0  0
    8.5479   -3.0556    0.0000 C   0  0  0  0  0  0  0  0  0  0  0  0
  1  2  1  0  0  0  0
  3  2  1  0  0  0  0
 17  2  1  0  0  0  0
  2 20  1  0  0  0  0
  4  3  1  0  0  0  0
  5  4  1  0  0  0  0
  5  6  1  0  0  0  0
 15  5  1  0  0  0  0
  6  7  1  0  0  0  0
 17  6  1  0  0  0  0
  7  8  1  0  0  0  0
  8  9  1  0  0  0  0
 10  9  2  0  0  0  0
  9 15  1  0  0  0  0
 11 10  1  0  0  0  0
 11 12  2  0  0  0  0
 13 11  1  0  0  0  0
 14 13  1  0  0  0  0
 15 14  1  0  0  0  0
 15 16  1  0  0  0  0
 18 17  1  0  0  0  0
 19 18  1  0  0  0  0
 20 19  1  0  0  0  0
 20 21  1  0  0  0  0
 21 22  1  0  0  0  0
 22 23  2  0  0  0  0
 22 24  1  0  0  0  0
 24 25  1  0  0  0  0
 25 26  1  0  0  0  0
 27 26  1  0  0  0  0
 26 30  1  0  0  0  0
 28 27  1  0  0  0  0
 29 28  1  0  0  0  0
 30 29  1  0  0  0  0
M  END
> <Inchi_key>
HPFVBGJFAYZEBE-UHFFFAOYSA-N

> <Source>
Mulliner

> <ID>
HT2018

> <H_MFHB>
0

> <CAS>


> <Cholestasis>


> <Name>
testosterone cypionate

> <Class>
0


$$$$