
  -INDIGO-08031710012D

 22 22  0  0  0  0  0  0  0  0999 V2000
   -1.5295    1.5295    0.0000 C   0  0  0  0  0  0  0  0  0  0  0  0
   -1.5295    3.0296    0.0000 C   0  0  0  0  0  0  0  0  0  0  0  0
   -0.2304    3.7795    0.0000 C   0  0  0  0  0  0  0  0  0  0  0  0
   -0.2304    5.2795    0.0000 C   0  0  0  0  0  0  0  0  0  0  0  0
    1.0687    6.0296    0.0000 N   0  0  0  0  0  0  0  0  0  0  0  0
    1.0687    7.5295    0.0000 C   0  0  0  0  0  0  0  0  0  0  0  0
   -0.2304    8.2795    0.0000 C   0  0  0  0  0  0  0  0  0  0  0  0
   -0.2304    9.7795    0.0000 C   0  0  0  0  0  0  0  0  0  0  0  0
   -1.5295   10.5295    0.0000 C   0  0  0  0  0  0  0  0  0  0  0  0
    2.3676    5.2795    0.0000 C   0  0  0  0  0  0  0  0  0  0  0  0
    3.6667    6.0296    0.0000 C   0  0  0  0  0  0  0  0  0  0  0  0
    4.9658    5.2795    0.0000 C   0  0  0  0  0  0  0  0  0  0  0  0
    6.2646    6.0296    0.0000 O   0  0  0  0  0  0  0  0  0  0  0  0
    7.5637    5.2795    0.0000 C   0  0  0  0  0  0  0  0  0  0  0  0
    7.5637    3.7795    0.0000 O   0  0  0  0  0  0  0  0  0  0  0  0
    8.8628    6.0296    0.0000 C   0  0  0  0  0  0  0  0  0  0  0  0
    8.8628    7.5295    0.0000 C   0  0  0  0  0  0  0  0  0  0  0  0
   10.1617    8.2795    0.0000 C   0  0  0  0  0  0  0  0  0  0  0  0
   11.4608    7.5295    0.0000 C   0  0  0  0  0  0  0  0  0  0  0  0
   12.7599    8.2795    0.0000 N   0  0  0  0  0  0  0  0  0  0  0  0
   11.4608    6.0296    0.0000 C   0  0  0  0  0  0  0  0  0  0  0  0
   10.1617    5.2795    0.0000 C   0  0  0  0  0  0  0  0  0  0  0  0
  1  2  1  0  0  0  0
  2  3  1  0  0  0  0
  3  4  1  0  0  0  0
  4  5  1  0  0  0  0
  5  6  1  0  0  0  0
  5 10  1  0  0  0  0
  6  7  1  0  0  0  0
  7  8  1  0  0  0  0
  8  9  1  0  0  0  0
 10 11  1  0  0  0  0
 11 12  1  0  0  0  0
 12 13  1  0  0  0  0
 13 14  1  0  0  0  0
 14 15  2  0  0  0  0
 14 16  1  0  0  0  0
 17 16  2  0  0  0  0
 16 22  1  0  0  0  0
 18 17  1  0  0  0  0
 19 18  2  0  0  0  0
 19 20  1  0  0  0  0
 21 19  1  0  0  0  0
 22 21  2  0  0  0  0
M  END
> <Inchi_key>
HQFWVSGBVLEQGA-UHFFFAOYSA-N

> <Source>
Mulliner

> <ID>
HT3390

> <H_MFHB>
0

> <CAS>


> <Cholestasis>


> <Name>


> <Class>
0

$$$$