

  -INDIGO-08031710012D

 10 10  0  0  0  0  0  0  0  0999 V2000
    0.2745   -0.2660    0.0000 C   0  0  0  0  0  0  0  0  0  0  0  0
    0.2275    1.2332    0.0000 C   0  0  0  0  0  0  0  0  0  0  0  0
    1.5024    2.0236    0.0000 C   0  0  0  0  0  0  0  0  0  0  0  0
    0.2061    2.7782    0.0000 C   0  0  0  0  0  0  0  0  0  0  0  0
    2.4422    0.8545    0.0000 C   0  0  0  0  0  0  0  0  0  0  0  0
    3.8445    1.3870    0.0000 C   0  0  0  0  0  0  0  0  0  0  0  0
    5.0996    0.5656    0.0000 O   0  0  0  0  0  0  0  0  0  0  0  0
    3.7714    2.8852    0.0000 N   0  0  0  0  0  0  0  0  0  0  0  0
    2.3239    3.2786    0.0000 C   0  0  0  0  0  0  0  0  0  0  0  0
    1.7913    4.6809    0.0000 O   0  0  0  0  0  0  0  0  0  0  0  0
  1  2  1  0  0  0  0
  2  3  1  0  0  0  0
  3  4  1  0  0  0  0
  5  3  1  0  0  0  0
  3  9  1  0  0  0  0
  6  5  1  0  0  0  0
  6  7  2  0  0  0  0
  8  6  1  0  0  0  0
  9  8  1  0  0  0  0
  9 10  2  0  0  0  0
M  END
> <Inchi_key>
HAPOVYFOVVWLRS-UHFFFAOYSA-N

> <Source>
Mulliner

> <ID>
HT0811

> <H_MFHB>
0

> <CAS>


> <Cholestasis>


> <Name>
ethosuximide

> <Class>
0


$$$$