
  -INDIGO-08031710012D

 28 27  0  0  0  0  0  0  0  0999 V2000
   21.1257    4.2678    0.0000 C   0  0  0  0  0  0  0  0  0  0  0  0
   19.8267    5.0178    0.0000 C   0  0  0  0  0  0  0  0  0  0  0  0
   18.5276    4.2678    0.0000 C   0  0  0  0  0  0  0  0  0  0  0  0
   17.2286    5.0178    0.0000 C   0  0  0  0  0  0  0  0  0  0  0  0
   15.9295    4.2678    0.0000 C   0  0  0  0  0  0  0  0  0  0  0  0
   15.9295    2.7678    0.0000 C   0  0  0  0  0  0  0  0  0  0  0  0
   17.2286    2.0178    0.0000 C   0  0  0  0  0  0  0  0  0  0  0  0
   14.6305    5.0178    0.0000 C   0  0  0  0  0  0  0  0  0  0  0  0
   13.3315    4.2678    0.0000 O   0  0  0  0  0  0  0  0  0  0  0  0
   12.0324    5.0178    0.0000 C   0  0  0  0  0  0  0  0  0  0  0  0
   12.0324    6.5178    0.0000 O   0  0  0  0  0  0  0  0  0  0  0  0
   10.7334    4.2678    0.0000 C   0  0  0  0  0  0  0  0  0  0  0  0
    9.4343    5.0178    0.0000 C   0  0  0  0  0  0  0  0  0  0  0  0
    8.1353    4.2678    0.0000 C   0  0  0  0  0  0  0  0  0  0  0  0
    8.1353    2.7678    0.0000 O   0  0  0  0  0  0  0  0  0  0  0  0
    6.8362    5.0178    0.0000 O   0  0  0  0  0  0  0  0  0  0  0  0
    5.5372    4.2678    0.0000 C   0  0  0  0  0  0  0  0  0  0  0  0
    4.2382    5.0178    0.0000 C   0  0  0  0  0  0  0  0  0  0  0  0
    4.2382    6.5178    0.0000 C   0  0  0  0  0  0  0  0  0  0  0  0
    2.9391    7.2678    0.0000 C   0  0  0  0  0  0  0  0  0  0  0  0
    2.9391    4.2678    0.0000 C   0  0  0  0  0  0  0  0  0  0  0  0
    1.6401    5.0178    0.0000 C   0  0  0  0  0  0  0  0  0  0  0  0
    0.3410    4.2678    0.0000 C   0  0  0  0  0  0  0  0  0  0  0  0
   -0.9580    5.0178    0.0000 C   0  0  0  0  0  0  0  0  0  0  0  0
    9.4343    6.5178    0.0000 S   0  0  0  0  0  0  0  0  0  0  0  0
   10.9342    6.5178    0.0000 O   0  0  0  0  0  0  0  0  0  0  0  0
    7.9345    6.5178    0.0000 O   0  0  0  0  0  0  0  0  0  0  0  0
    9.4343    8.0178    0.0000 O   0  0  0  0  0  0  0  0  0  0  0  0
  1  2  1  0  0  0  0
  2  3  1  0  0  0  0
  3  4  1  0  0  0  0
  4  5  1  0  0  0  0
  5  6  1  0  0  0  0
  5  8  1  0  0  0  0
  6  7  1  0  0  0  0
  8  9  1  0  0  0  0
  9 10  1  0  0  0  0
 10 11  2  0  0  0  0
 10 12  1  0  0  0  0
 12 13  1  0  0  0  0
 13 14  1  0  0  0  0
 13 25  1  0  0  0  0
 14 15  2  0  0  0  0
 14 16  1  0  0  0  0
 16 17  1  0  0  0  0
 17 18  1  0  0  0  0
 18 19  1  0  0  0  0
 18 21  1  0  0  0  0
 19 20  1  0  0  0  0
 21 22  1  0  0  0  0
 22 23  1  0  0  0  0
 23 24  1  0  0  0  0
 25 26  2  0  0  0  0
 25 27  2  0  0  0  0
 25 28  1  0  0  0  0
M  END
> <Inchi_key>
HNSDLXPSAYFUHK-UHFFFAOYSA-N

> <Source>
Mulliner

> <ID>
HT0704

> <H_MFHB>
0

> <CAS>


> <Cholestasis>


> <Name>
docusate sodium

> <Class>
0

$$$$