
  -INDIGO-08031710012D

 39 43  0  0  0  0  0  0  0  0999 V2000
   15.4354   -1.2252    0.0000 C   0  0  0  0  0  0  0  0  0  0  0  0
   14.1363   -0.4754    0.0000 O   0  0  0  0  0  0  0  0  0  0  0  0
   14.1363    1.0247    0.0000 C   0  0  0  0  0  0  0  0  0  0  0  0
   15.4354    1.7747    0.0000 C   0  0  0  0  0  0  0  0  0  0  0  0
   15.4354    3.2747    0.0000 C   0  0  0  0  0  0  0  0  0  0  0  0
   14.1363    4.0247    0.0000 C   0  0  0  0  0  0  0  0  0  0  0  0
   12.8372    3.2747    0.0000 C   0  0  0  0  0  0  0  0  0  0  0  0
   11.5383    4.0247    0.0000 C   0  0  0  0  0  0  0  0  0  0  0  0
   11.5383    5.5248    0.0000 O   0  0  0  0  0  0  0  0  0  0  0  0
   10.2392    3.2747    0.0000 C   0  0  0  0  0  0  0  0  0  0  0  0
    8.9401    4.0247    0.0000 C   0  0  0  0  0  0  0  0  0  0  0  0
    8.9401    5.5248    0.0000 O   0  0  0  0  0  0  0  0  0  0  0  0
    7.6410    3.2747    0.0000 C   0  0  0  0  0  0  0  0  0  0  0  0
    6.3422    4.0247    0.0000 C   0  0  0  0  0  0  0  0  0  0  0  0
    5.0431    3.2747    0.0000 C   0  0  0  0  0  0  0  0  0  0  0  0
    3.5432    3.2747    0.0000 O   0  0  0  0  0  0  0  0  0  0  0  0
    5.0431    1.7747    0.0000 C   0  0  0  0  0  0  0  0  0  0  0  0
    6.3422    1.0247    0.0000 C   0  0  0  0  0  0  0  0  0  0  0  0
    6.3422   -0.4754    0.0000 O   0  0  0  0  0  0  0  0  0  0  0  0
    5.0431   -1.2252    0.0000 C   0  0  0  0  0  0  0  0  0  0  0  0
    3.7440   -0.4754    0.0000 C   0  0  0  0  0  0  0  0  0  0  0  0
    2.4451   -1.2252    0.0000 C   0  0  0  0  0  0  0  0  0  0  0  0
    1.1460   -0.4754    0.0000 O   0  0  0  0  0  0  0  0  0  0  0  0
    2.4451   -2.7253    0.0000 C   0  0  0  0  0  0  0  0  0  0  0  0
    1.1460   -3.4753    0.0000 O   0  0  0  0  0  0  0  0  0  0  0  0
    3.7440   -3.4753    0.0000 C   0  0  0  0  0  0  0  0  0  0  0  0
    3.7440   -4.9753    0.0000 C   0  0  0  0  0  0  0  0  0  0  0  0
    5.0431   -2.7253    0.0000 O   0  0  0  0  0  0  0  0  0  0  0  0
    7.6410    1.7747    0.0000 C   0  0  0  0  0  0  0  0  0  0  0  0
    8.9401    1.0247    0.0000 C   0  0  0  0  0  0  0  0  0  0  0  0
    8.9401   -0.4754    0.0000 O   0  0  0  0  0  0  0  0  0  0  0  0
   10.2392    1.7747    0.0000 C   0  0  0  0  0  0  0  0  0  0  0  0
   11.5383    1.0247    0.0000 C   0  0  0  0  0  0  0  0  0  0  0  0
   11.5383   -0.4754    0.0000 O   0  0  0  0  0  0  0  0  0  0  0  0
   12.8372    1.7747    0.0000 C   0  0  0  0  0  0  0  0  0  0  0  0
    4.2930    4.5736    0.0000 C   0  0  0  0  0  0  0  0  0  0  0  0
    5.0431    5.8727    0.0000 O   0  0  0  0  0  0  0  0  0  0  0  0
    2.7931    4.5736    0.0000 C   0  0  0  0  0  0  0  0  0  0  0  0
    2.0430    5.8727    0.0000 O   0  0  0  0  0  0  0  0  0  0  0  0
  1  2  1  0  0  0  0
  2  3  1  0  0  0  0
  4  3  2  0  0  0  0
  3 35  1  0  0  0  0
  5  4  1  0  0  0  0
  6  5  2  0  0  0  0
  7  6  1  0  0  0  0
  8  7  1  0  0  0  0
  7 35  2  0  0  0  0
  8  9  2  0  0  0  0
 10  8  1  0  0  0  0
 11 10  2  0  0  0  0
 10 32  1  0  0  0  0
 11 12  1  0  0  0  0
 13 11  1  0  0  0  0
 14 13  1  0  0  0  0
 13 29  2  0  0  0  0
 15 14  1  0  0  0  0
 15 16  1  0  0  0  0
 17 15  1  0  0  0  0
 15 36  1  0  0  0  0
 18 17  1  0  0  0  0
 18 19  1  0  0  0  0
 29 18  1  0  0  0  0
 19 20  1  0  0  0  0
 21 20  1  0  0  0  0
 20 28  1  0  0  0  0
 22 21  1  0  0  0  0
 22 23  1  0  0  0  0
 24 22  1  0  0  0  0
 24 25  1  0  0  0  0
 26 24  1  0  0  0  0
 26 27  1  0  0  0  0
 28 26  1  0  0  0  0
 30 29  1  0  0  0  0
 30 31  1  0  0  0  0
 32 30  2  0  0  0  0
 33 32  1  0  0  0  0
 33 34  2  0  0  0  0
 35 33  1  0  0  0  0
 36 37  2  0  0  0  0
 36 38  1  0  0  0  0
 38 39  1  0  0  0  0
M  END
> <Inchi_key>
HEQRYQONNHFDHG-UHFFFAOYSA-N

> <Source>
Mulliner

> <ID>
HT3923

> <H_MFHB>
0

> <CAS>


> <Cholestasis>


> <Name>


> <Class>
0

$$$$