

  -INDIGO-08031710012D

 20 20  0  0  0  0  0  0  0  0999 V2000
    5.8500   -2.4682    0.0000 C   0  0  0  0  0  0  0  0  0  0  0  0
    5.1000   -3.7672    0.0000 C   0  0  0  0  0  0  0  0  0  0  0  0
    3.6001   -3.7672    0.0000 C   0  0  0  0  0  0  0  0  0  0  0  0
    2.8501   -2.4682    0.0000 N   0  0  0  0  0  0  0  0  0  0  0  0
    3.6001   -1.1691    0.0000 C   0  0  0  0  0  0  0  0  0  0  0  0
    2.8501    0.1299    0.0000 O   0  0  0  0  0  0  0  0  0  0  0  0
    5.1000   -1.1691    0.0000 C   0  0  0  0  0  0  0  0  0  0  0  0
    1.3499   -2.4682    0.0000 C   0  0  0  0  0  0  0  0  0  0  0  0
    0.5999   -1.1691    0.0000 C   0  0  0  0  0  0  0  0  0  0  0  0
    1.3499    0.1299    0.0000 I   0  0  0  0  0  0  0  0  0  0  0  0
   -0.9000   -1.1691    0.0000 C   0  0  0  0  0  0  0  0  0  0  0  0
   -1.6500   -2.4682    0.0000 C   0  0  0  0  0  0  0  0  0  0  0  0
   -3.1500   -2.4682    0.0000 I   0  0  0  0  0  0  0  0  0  0  0  0
   -0.9000   -3.7672    0.0000 C   0  0  0  0  0  0  0  0  0  0  0  0
   -1.6500   -5.0662    0.0000 N   0  0  0  0  0  0  0  0  0  0  0  0
    0.5999   -3.7672    0.0000 C   0  0  0  0  0  0  0  0  0  0  0  0
    1.3499   -5.0662    0.0000 I   0  0  0  0  0  0  0  0  0  0  0  0
    5.8500   -5.0662    0.0000 C   0  0  0  0  0  0  0  0  0  0  0  0
    5.1000   -6.3653    0.0000 O   0  0  0  0  0  0  0  0  0  0  0  0
    7.3500   -5.0662    0.0000 O   0  0  0  0  0  0  0  0  0  0  0  0
  1  2  1  0  0  0  0
  2  3  1  0  0  0  0
  2 18  1  0  0  0  0
  3  4  1  0  0  0  0
  4  5  1  0  0  0  0
  4  8  1  0  0  0  0
  5  6  2  0  0  0  0
  5  7  1  0  0  0  0
  9  8  2  0  0  0  0
  8 16  1  0  0  0  0
  9 10  1  0  0  0  0
 11  9  1  0  0  0  0
 12 11  2  0  0  0  0
 12 13  1  0  0  0  0
 14 12  1  0  0  0  0
 14 15  1  0  0  0  0
 16 14  2  0  0  0  0
 16 17  1  0  0  0  0
 18 19  2  0  0  0  0
 18 20  1  0  0  0  0
M  END
> <Inchi_key>
GSVQIUGOUKJHRC-UHFFFAOYSA-N

> <Source>
Mulliner

> <ID>
HT1101

> <H_MFHB>
0

> <CAS>


> <Cholestasis>


> <Name>
iocetamic acid

> <Class>
0


$$$$