

  -INDIGO-08031710012D

 31 33  0  0  0  0  0  0  0  0999 V2000
   13.4951    3.6159    0.0000 C   0  0  0  0  0  0  0  0  0  0  0  0
   12.1961    2.8660    0.0000 C   0  0  0  0  0  0  0  0  0  0  0  0
   10.8969    3.6159    0.0000 O   0  0  0  0  0  0  0  0  0  0  0  0
    9.5979    2.8660    0.0000 C   0  0  0  0  0  0  0  0  0  0  0  0
    9.5979    1.3661    0.0000 O   0  0  0  0  0  0  0  0  0  0  0  0
    8.2989    3.6159    0.0000 C   0  0  0  0  0  0  0  0  0  0  0  0
    8.2989    5.1160    0.0000 C   0  0  0  0  0  0  0  0  0  0  0  0
    9.5979    5.8660    0.0000 C   0  0  0  0  0  0  0  0  0  0  0  0
    9.5979    7.3661    0.0000 C   0  0  0  0  0  0  0  0  0  0  0  0
   10.8969    8.1160    0.0000 C   0  0  0  0  0  0  0  0  0  0  0  0
   10.8969    9.6159    0.0000 C   0  0  0  0  0  0  0  0  0  0  0  0
    9.5979   10.3660    0.0000 C   0  0  0  0  0  0  0  0  0  0  0  0
    8.2989    9.6159    0.0000 C   0  0  0  0  0  0  0  0  0  0  0  0
    8.2989    8.1160    0.0000 C   0  0  0  0  0  0  0  0  0  0  0  0
    6.9999    2.8660    0.0000 N   0  0  0  0  0  0  0  0  0  0  0  0
    5.7009    3.6159    0.0000 C   0  0  0  0  0  0  0  0  0  0  0  0
    5.7009    5.1160    0.0000 C   0  0  0  0  0  0  0  0  0  0  0  0
    4.4017    2.8660    0.0000 C   0  0  0  0  0  0  0  0  0  0  0  0
    4.4017    1.3661    0.0000 O   0  0  0  0  0  0  0  0  0  0  0  0
    3.1027    3.6159    0.0000 N   0  0  0  0  0  0  0  0  0  0  0  0
    2.9460    5.1078    0.0000 C   0  0  0  0  0  0  0  0  0  0  0  0
    1.4788    5.4197    0.0000 C   0  0  0  0  0  0  0  0  0  0  0  0
    0.7289    4.1206    0.0000 C   0  0  0  0  0  0  0  0  0  0  0  0
    1.7325    3.0058    0.0000 C   0  0  0  0  0  0  0  0  0  0  0  0
    1.4205    1.5387    0.0000 C   0  0  0  0  0  0  0  0  0  0  0  0
    2.5353    0.5350    0.0000 O   0  0  0  0  0  0  0  0  0  0  0  0
   -0.0061    1.0750    0.0000 O   0  0  0  0  0  0  0  0  0  0  0  0
    2.2287    6.7188    0.0000 S   0  0  0  0  0  0  0  0  0  0  0  0
    1.2251    7.8334    0.0000 C   0  0  0  0  0  0  0  0  0  0  0  0
   -0.1453    7.2233    0.0000 C   0  0  0  0  0  0  0  0  0  0  0  0
    0.0114    5.7315    0.0000 S   0  0  0  0  0  0  0  0  0  0  0  0
  1  2  1  0  0  0  0
  2  3  1  0  0  0  0
  3  4  1  0  0  0  0
  4  5  2  0  0  0  0
  4  6  1  0  0  0  0
  6  7  1  0  0  0  0
  6 15  1  0  0  0  0
  7  8  1  0  0  0  0
  8  9  1  0  0  0  0
 10  9  2  0  0  0  0
  9 14  1  0  0  0  0
 11 10  1  0  0  0  0
 12 11  2  0  0  0  0
 13 12  1  0  0  0  0
 14 13  2  0  0  0  0
 15 16  1  0  0  0  0
 16 17  1  0  0  0  0
 16 18  1  0  0  0  0
 18 19  2  0  0  0  0
 18 20  1  0  0  0  0
 21 20  1  0  0  0  0
 20 24  1  0  0  0  0
 22 21  1  0  0  0  0
 23 22  1  0  0  0  0
 28 22  1  0  0  0  0
 22 31  1  0  0  0  0
 24 23  1  0  0  0  0
 24 25  1  0  0  0  0
 25 26  2  0  0  0  0
 25 27  1  0  0  0  0
 29 28  1  0  0  0  0
 30 29  1  0  0  0  0
 31 30  1  0  0  0  0
M  END
> <Inchi_key>
HRWCVUIFMSZDJS-UHFFFAOYSA-N

> <Source>
Mulliner

> <ID>
HT1912

> <H_MFHB>
0

> <CAS>


> <Cholestasis>


> <Name>
spirapril hydrochloride;spirapril

> <Class>
0


$$$$