
  -INDIGO-08031709442D

 33 33  0  0  0  0  0  0  0  0999 V2000
    4.6365   -1.6532    0.0000 I   0  0  0  0  0  0  0  0  0  0  0  0
    3.8864   -0.3543    0.0000 C   0  0  0  0  0  0  0  0  0  0  0  0
    2.3863   -0.3543    0.0000 C   0  0  0  0  0  0  0  0  0  0  0  0
    1.6365   -1.6532    0.0000 C   0  0  0  0  0  0  0  0  0  0  0  0
    2.3863   -2.9525    0.0000 O   0  0  0  0  0  0  0  0  0  0  0  0
    0.1363   -1.6532    0.0000 N   0  0  0  0  0  0  0  0  0  0  0  0
   -0.6135   -2.9525    0.0000 C   0  0  0  0  0  0  0  0  0  0  0  0
   -2.1136   -2.9525    0.0000 C   0  0  0  0  0  0  0  0  0  0  0  0
   -2.8637   -1.6532    0.0000 O   0  0  0  0  0  0  0  0  0  0  0  0
   -2.8637   -4.2514    0.0000 C   0  0  0  0  0  0  0  0  0  0  0  0
   -4.3636   -4.2514    0.0000 O   0  0  0  0  0  0  0  0  0  0  0  0
    1.6365    0.9448    0.0000 C   0  0  0  0  0  0  0  0  0  0  0  0
    0.1363    0.9448    0.0000 I   0  0  0  0  0  0  0  0  0  0  0  0
    2.3863    2.2439    0.0000 C   0  0  0  0  0  0  0  0  0  0  0  0
    1.6365    3.5428    0.0000 N   0  0  0  0  0  0  0  0  0  0  0  0
    0.1363    3.5428    0.0000 C   0  0  0  0  0  0  0  0  0  0  0  0
   -0.6135    2.2439    0.0000 O   0  0  0  0  0  0  0  0  0  0  0  0
   -0.6135    4.8419    0.0000 C   0  0  0  0  0  0  0  0  0  0  0  0
   -2.1136    4.8419    0.0000 O   0  0  0  0  0  0  0  0  0  0  0  0
    2.3863    4.8419    0.0000 C   0  0  0  0  0  0  0  0  0  0  0  0
    1.6365    6.1410    0.0000 C   0  0  0  0  0  0  0  0  0  0  0  0
    2.3863    7.4399    0.0000 O   0  0  0  0  0  0  0  0  0  0  0  0
    3.8864    2.2439    0.0000 C   0  0  0  0  0  0  0  0  0  0  0  0
    4.6365    3.5428    0.0000 I   0  0  0  0  0  0  0  0  0  0  0  0
    4.6365    0.9448    0.0000 C   0  0  0  0  0  0  0  0  0  0  0  0
    6.1364    0.9448    0.0000 C   0  0  0  0  0  0  0  0  0  0  0  0
    6.8865    2.2439    0.0000 O   0  0  0  0  0  0  0  0  0  0  0  0
    6.8865   -0.3543    0.0000 N   0  0  0  0  0  0  0  0  0  0  0  0
    8.3864   -0.3543    0.0000 C   0  0  0  0  0  0  0  0  0  0  0  0
    9.1364   -1.6532    0.0000 C   0  0  0  0  0  0  0  0  0  0  0  0
    8.3864   -2.9525    0.0000 O   0  0  0  0  0  0  0  0  0  0  0  0
   10.6363   -1.6532    0.0000 C   0  0  0  0  0  0  0  0  0  0  0  0
   11.3864   -2.9525    0.0000 O   0  0  0  0  0  0  0  0  0  0  0  0
  1  2  1  0  0  0  0
  3  2  2  0  0  0  0
  2 25  1  0  0  0  0
  3  4  1  0  0  0  0
 12  3  1  0  0  0  0
  4  5  2  0  0  0  0
  4  6  1  0  0  0  0
  6  7  1  0  0  0  0
  7  8  1  0  0  0  0
  8  9  1  0  0  0  0
  8 10  1  0  0  0  0
 10 11  1  0  0  0  0
 12 13  1  0  0  0  0
 14 12  2  0  0  0  0
 14 15  1  0  0  0  0
 23 14  1  0  0  0  0
 15 16  1  0  0  0  0
 15 20  1  0  0  0  0
 16 17  2  0  0  0  0
 16 18  1  0  0  0  0
 18 19  1  0  0  0  0
 20 21  1  0  0  0  0
 21 22  1  0  0  0  0
 23 24  1  0  0  0  0
 25 23  2  0  0  0  0
 25 26  1  0  0  0  0
 26 27  2  0  0  0  0
 26 28  1  0  0  0  0
 28 29  1  0  0  0  0
 29 30  1  0  0  0  0
 30 31  1  0  0  0  0
 30 32  1  0  0  0  0
 32 33  1  0  0  0  0
M  END
> <Inchi_key>
AMDBBAQNWSUWGN-UHFFFAOYSA-N

> <Source>
Kotsampasakou

> <ID>
EK0276

> <H_MFHB>


> <CAS>


> <Cholestasis>
0

> <Name>
ioversol

> <Class>
0

$$$$