
  -INDIGO-08031710012D

 41 46  0  0  0  0  0  0  0  0999 V2000
   -7.0762    4.0896    0.0000 C   0  0  0  0  0  0  0  0  0  0  0  0
   -7.8248    5.3894    0.0000 C   0  0  0  0  0  0  0  0  0  0  0  0
   -9.3249    5.3907    0.0000 O   0  0  0  0  0  0  0  0  0  0  0  0
   -7.0736    6.6877    0.0000 O   0  0  0  0  0  0  0  0  0  0  0  0
   -5.5737    6.6864    0.0000 C   0  0  0  0  0  0  0  0  0  0  0  0
   -4.8249    5.3867    0.0000 C   0  0  0  0  0  0  0  0  0  0  0  0
   -3.3250    5.3854    0.0000 C   0  0  0  0  0  0  0  0  0  0  0  0
   -2.5761    4.0856    0.0000 C   0  0  0  0  0  0  0  0  0  0  0  0
   -1.0760    4.0842    0.0000 C   0  0  0  0  0  0  0  0  0  0  0  0
   -0.3248    5.3826    0.0000 C   0  0  0  0  0  0  0  0  0  0  0  0
   -1.0737    6.6822    0.0000 C   0  0  0  0  0  0  0  0  0  0  0  0
   -0.3227    7.9807    0.0000 C   0  0  0  0  0  0  0  0  0  0  0  0
    1.1774    7.9792    0.0000 C   0  0  0  0  0  0  0  0  0  0  0  0
    1.9263    6.6796    0.0000 C   0  0  0  0  0  0  0  0  0  0  0  0
    2.8507    7.8608    0.0000 C   0  0  0  0  0  0  0  0  0  0  0  0
    1.1750    5.3812    0.0000 C   0  0  0  0  0  0  0  0  0  0  0  0
    2.1778    4.2656    0.0000 C   0  0  0  0  0  0  0  0  0  0  0  0
    3.5487    4.8745    0.0000 C   0  0  0  0  0  0  0  0  0  0  0  0
    3.3931    6.3665    0.0000 C   0  0  0  0  0  0  0  0  0  0  0  0
    4.5088    7.3691    0.0000 O   0  0  0  0  0  0  0  0  0  0  0  0
    4.1983    8.8366    0.0000 C   0  0  0  0  0  0  0  0  0  0  0  0
    2.7721    9.3014    0.0000 O   0  0  0  0  0  0  0  0  0  0  0  0
    5.3140    9.8393    0.0000 C   0  0  0  0  0  0  0  0  0  0  0  0
    4.8471    4.1233    0.0000 N   0  0  0  0  0  0  0  0  0  0  0  0
    3.5474    3.3745    0.0000 C   0  0  0  0  0  0  0  0  0  0  0  0
    5.5983    5.4217    0.0000 C   0  0  0  0  0  0  0  0  0  0  0  0
    7.0981    5.4203    0.0000 C   0  0  0  0  0  0  0  0  0  0  0  0
    7.8470    4.1205    0.0000 C   0  0  0  0  0  0  0  0  0  0  0  0
    7.0958    2.8222    0.0000 C   0  0  0  0  0  0  0  0  0  0  0  0
    5.5959    2.8237    0.0000 C   0  0  0  0  0  0  0  0  0  0  0  0
   -2.5738    6.6837    0.0000 C   0  0  0  0  0  0  0  0  0  0  0  0
   -4.0728    6.6326    0.0000 C   0  0  0  0  0  0  0  0  0  0  0  0
   -3.3227    7.9834    0.0000 C   0  0  0  0  0  0  0  0  0  0  0  0
   -4.8225    7.9847    0.0000 C   0  0  0  0  0  0  0  0  0  0  0  0
   -5.5714    9.2844    0.0000 N   0  0  0  0  0  0  0  0  0  0  0  0
   -4.0713    9.2832    0.0000 C   0  0  0  0  0  0  0  0  0  0  0  0
   -6.8710    8.5355    0.0000 C   0  0  0  0  0  0  0  0  0  0  0  0
   -8.1696    9.2867    0.0000 C   0  0  0  0  0  0  0  0  0  0  0  0
   -8.1681   10.7868    0.0000 C   0  0  0  0  0  0  0  0  0  0  0  0
   -6.8684   11.5356    0.0000 C   0  0  0  0  0  0  0  0  0  0  0  0
   -5.5701   10.7844    0.0000 C   0  0  0  0  0  0  0  0  0  0  0  0
  1  2  1  0  0  0  0
  2  3  2  0  0  0  0
  2  4  1  0  0  0  0
  4  5  1  0  0  0  0
  6  5  1  0  0  0  0
  5 34  1  0  0  0  0
  7  6  1  0  0  0  0
  8  7  1  0  0  0  0
  7 31  1  0  0  0  0
  9  8  1  0  0  0  0
 10  9  1  0  0  0  0
 10 11  1  0  0  0  0
 16 10  1  0  0  0  0
 11 12  1  0  0  0  0
 31 11  1  0  0  0  0
 12 13  1  0  0  0  0
 13 14  1  0  0  0  0
 14 15  1  0  0  0  0
 16 14  1  0  0  0  0
 14 19  1  0  0  0  0
 17 16  1  0  0  0  0
 18 17  1  0  0  0  0
 19 18  1  0  0  0  0
 18 24  1  0  0  0  0
 19 20  1  0  0  0  0
 20 21  1  0  0  0  0
 21 22  2  0  0  0  0
 21 23  1  0  0  0  0
 24 25  1  0  0  0  0
 26 24  1  0  0  0  0
 24 30  1  0  0  0  0
 27 26  1  0  0  0  0
 28 27  1  0  0  0  0
 29 28  1  0  0  0  0
 30 29  1  0  0  0  0
 31 32  1  0  0  0  0
 33 31  1  0  0  0  0
 34 33  1  0  0  0  0
 34 35  1  0  0  0  0
 35 36  1  0  0  0  0
 37 35  1  0  0  0  0
 35 41  1  0  0  0  0
 38 37  1  0  0  0  0
 39 38  1  0  0  0  0
 40 39  1  0  0  0  0
 41 40  1  0  0  0  0
M  CHG  2  24   1  35   1
M  END
> <Inchi_key>
GVEAYVLWDAFXET-UHFFFAOYSA-N

> <Source>
Mulliner

> <ID>
HT1585

> <H_MFHB>
0

> <CAS>


> <Cholestasis>


> <Name>
pancuronium bromide;pancuronium

> <Class>
0

$$$$