
  -INDIGO-08031710012D

 31 33  0  0  0  0  0  0  0  0999 V2000
   23.8838   -4.9013    0.0000 C   0  0  0  0  0  0  0  0  0  0  0  0
   22.3917   -5.0532    0.0000 C   0  0  0  0  0  0  0  0  0  0  0  0
   21.6373   -6.3498    0.0000 O   0  0  0  0  0  0  0  0  0  0  0  0
   20.1711   -6.0331    0.0000 N   0  0  0  0  0  0  0  0  0  0  0  0
   20.0192   -4.5408    0.0000 C   0  0  0  0  0  0  0  0  0  0  0  0
   21.3913   -3.9352    0.0000 C   0  0  0  0  0  0  0  0  0  0  0  0
   18.7225   -3.7866    0.0000 C   0  0  0  0  0  0  0  0  0  0  0  0
   18.7273   -2.2866    0.0000 O   0  0  0  0  0  0  0  0  0  0  0  0
   17.4209   -4.5323    0.0000 N   0  0  0  0  0  0  0  0  0  0  0  0
   16.1246   -3.7781    0.0000 C   0  0  0  0  0  0  0  0  0  0  0  0
   14.8230   -4.5238    0.0000 C   0  0  0  0  0  0  0  0  0  0  0  0
   13.5266   -3.7696    0.0000 C   0  0  0  0  0  0  0  0  0  0  0  0
   13.5315   -2.2696    0.0000 C   0  0  0  0  0  0  0  0  0  0  0  0
   12.2347   -1.5153    0.0000 C   0  0  0  0  0  0  0  0  0  0  0  0
   10.9332   -2.2610    0.0000 C   0  0  0  0  0  0  0  0  0  0  0  0
   10.9283   -3.7610    0.0000 C   0  0  0  0  0  0  0  0  0  0  0  0
   12.2250   -4.5153    0.0000 C   0  0  0  0  0  0  0  0  0  0  0  0
    9.6368   -1.5068    0.0000 S   0  0  0  0  0  0  0  0  0  0  0  0
   10.3912   -0.2102    0.0000 O   0  0  0  0  0  0  0  0  0  0  0  0
    8.8824   -2.8034    0.0000 O   0  0  0  0  0  0  0  0  0  0  0  0
    8.3401   -0.7525    0.0000 N   0  0  0  0  0  0  0  0  0  0  0  0
    7.0388   -1.4983    0.0000 C   0  0  0  0  0  0  0  0  0  0  0  0
    7.0336   -2.9983    0.0000 O   0  0  0  0  0  0  0  0  0  0  0  0
    5.7421   -0.7440    0.0000 N   0  0  0  0  0  0  0  0  0  0  0  0
    4.4405   -1.4898    0.0000 N   0  0  0  0  0  0  0  0  0  0  0  0
    4.5481   -2.9859    0.0000 C   0  0  0  0  0  0  0  0  0  0  0  0
    3.4444   -4.0014    0.0000 C   0  0  0  0  0  0  0  0  0  0  0  0
    1.9619   -3.7723    0.0000 C   0  0  0  0  0  0  0  0  0  0  0  0
    1.2162   -2.4708    0.0000 C   0  0  0  0  0  0  0  0  0  0  0  0
    1.7693   -1.0768    0.0000 C   0  0  0  0  0  0  0  0  0  0  0  0
    3.2043   -0.6404    0.0000 C   0  0  0  0  0  0  0  0  0  0  0  0
  1  2  1  0  0  0  0
  3  2  1  0  0  0  0
  2  6  2  0  0  0  0
  4  3  1  0  0  0  0
  5  4  2  0  0  0  0
  6  5  1  0  0  0  0
  5  7  1  0  0  0  0
  7  8  2  0  0  0  0
  7  9  1  0  0  0  0
  9 10  1  0  0  0  0
 10 11  1  0  0  0  0
 11 12  1  0  0  0  0
 13 12  2  0  0  0  0
 12 17  1  0  0  0  0
 14 13  1  0  0  0  0
 15 14  2  0  0  0  0
 16 15  1  0  0  0  0
 15 18  1  0  0  0  0
 17 16  2  0  0  0  0
 18 19  2  0  0  0  0
 18 20  1  0  0  0  0
 18 21  2  0  0  0  0
 21 22  1  0  0  0  0
 22 23  2  0  0  0  0
 22 24  1  0  0  0  0
 24 25  1  0  0  0  0
 26 25  1  0  0  0  0
 25 31  1  0  0  0  0
 27 26  1  0  0  0  0
 28 27  1  0  0  0  0
 29 28  1  0  0  0  0
 30 29  1  0  0  0  0
 31 30  1  0  0  0  0
M  END
> <Inchi_key>
HGQBZUZHOBIVEE-UHFFFAOYSA-N

> <Source>
Mulliner

> <ID>
HT0990

> <H_MFHB>
0

> <CAS>


> <Cholestasis>


> <Name>
glisoxepide

> <Class>
0

$$$$