

  -INDIGO-08031710012D

 25 27  0  0  0  0  0  0  0  0999 V2000
    9.2193   -9.2193    0.0000 C   0  0  0  0  0  0  0  0  0  0  0  0
    9.2193   -7.7193    0.0000 C   0  0  0  0  0  0  0  0  0  0  0  0
    7.9202   -6.9692    0.0000 N   0  0  0  0  0  0  0  0  0  0  0  0
    7.1704   -8.2683    0.0000 C   0  0  0  0  0  0  0  0  0  0  0  0
    8.6702   -5.6703    0.0000 C   0  0  0  0  0  0  0  0  0  0  0  0
   10.1703   -5.6703    0.0000 C   0  0  0  0  0  0  0  0  0  0  0  0
    6.6212   -6.2193    0.0000 C   0  0  0  0  0  0  0  0  0  0  0  0
    5.3221   -6.9692    0.0000 C   0  0  0  0  0  0  0  0  0  0  0  0
    4.0233   -6.2193    0.0000 O   0  0  0  0  0  0  0  0  0  0  0  0
    2.7240   -6.9692    0.0000 C   0  0  0  0  0  0  0  0  0  0  0  0
    2.7240   -8.4692    0.0000 O   0  0  0  0  0  0  0  0  0  0  0  0
    1.4252   -6.2193    0.0000 C   0  0  0  0  0  0  0  0  0  0  0  0
    0.1259   -6.9692    0.0000 C   0  0  0  0  0  0  0  0  0  0  0  0
    0.1259   -8.4692    0.0000 C   0  0  0  0  0  0  0  0  0  0  0  0
   -1.1729   -9.2193    0.0000 C   0  0  0  0  0  0  0  0  0  0  0  0
   -2.4720   -8.4692    0.0000 C   0  0  0  0  0  0  0  0  0  0  0  0
   -2.4720   -6.9692    0.0000 C   0  0  0  0  0  0  0  0  0  0  0  0
   -1.1729   -6.2193    0.0000 C   0  0  0  0  0  0  0  0  0  0  0  0
   -1.1729   -4.7193    0.0000 O   0  0  0  0  0  0  0  0  0  0  0  0
    0.1259   -3.9692    0.0000 C   0  0  0  0  0  0  0  0  0  0  0  0
    0.1259   -2.4692    0.0000 C   0  0  0  0  0  0  0  0  0  0  0  0
    1.4252   -1.7193    0.0000 C   0  0  0  0  0  0  0  0  0  0  0  0
    2.7240   -2.4692    0.0000 C   0  0  0  0  0  0  0  0  0  0  0  0
    2.7240   -3.9692    0.0000 C   0  0  0  0  0  0  0  0  0  0  0  0
    1.4252   -4.7193    0.0000 C   0  0  0  0  0  0  0  0  0  0  0  0
  1  2  1  0  0  0  0
  2  3  1  0  0  0  0
  3  4  1  0  0  0  0
  3  5  1  0  0  0  0
  3  7  1  0  0  0  0
  5  6  1  0  0  0  0
  7  8  1  0  0  0  0
  8  9  1  0  0  0  0
  9 10  1  0  0  0  0
 10 11  2  0  0  0  0
 10 12  1  0  0  0  0
 13 12  1  0  0  0  0
 12 25  1  0  0  0  0
 14 13  1  0  0  0  0
 13 18  2  0  0  0  0
 15 14  2  0  0  0  0
 16 15  1  0  0  0  0
 17 16  2  0  0  0  0
 18 17  1  0  0  0  0
 19 18  1  0  0  0  0
 20 19  1  0  0  0  0
 21 20  1  0  0  0  0
 20 25  2  0  0  0  0
 22 21  2  0  0  0  0
 23 22  1  0  0  0  0
 24 23  2  0  0  0  0
 25 24  1  0  0  0  0
M  CHG  1   3   1
M  END
> <Inchi_key>
GZHFODJQISUKAY-UHFFFAOYSA-N

> <Source>
Mulliner

> <ID>
HT1335

> <H_MFHB>
0

> <CAS>


> <Cholestasis>


> <Name>
methantheline

> <Class>
0


$$$$