

  -INDIGO-08031710012D

 23 25  0  0  0  0  0  0  0  0999 V2000
   -0.4223    0.9955    0.0000 C   0  0  0  0  0  0  0  0  0  0  0  0
    0.6201    2.0741    0.0000 C   0  0  0  0  0  0  0  0  0  0  0  0
   -0.8141    2.5132    0.0000 C   0  0  0  0  0  0  0  0  0  0  0  0
    1.7771    1.1195    0.0000 S   0  0  0  0  0  0  0  0  0  0  0  0
    3.0424    1.9250    0.0000 C   0  0  0  0  0  0  0  0  0  0  0  0
    4.4949    2.3000    0.0000 C   0  0  0  0  0  0  0  0  0  0  0  0
    5.7870    1.5382    0.0000 N   0  0  0  0  0  0  0  0  0  0  0  0
    7.0928    2.2763    0.0000 C   0  0  0  0  0  0  0  0  0  0  0  0
    7.1066    3.7762    0.0000 O   0  0  0  0  0  0  0  0  0  0  0  0
    8.3849    1.5145    0.0000 C   0  0  0  0  0  0  0  0  0  0  0  0
    7.0793    0.7763    0.0000 N   0  0  0  0  0  0  0  0  0  0  0  0
    9.1469    2.8066    0.0000 C   0  0  0  0  0  0  0  0  0  0  0  0
   10.6468    2.7929    0.0000 C   0  0  0  0  0  0  0  0  0  0  0  0
   11.3849    1.4871    0.0000 C   0  0  0  0  0  0  0  0  0  0  0  0
   10.6231    0.1950    0.0000 C   0  0  0  0  0  0  0  0  0  0  0  0
    9.1230    0.2086    0.0000 C   0  0  0  0  0  0  0  0  0  0  0  0
    4.1200    3.7523    0.0000 C   0  0  0  0  0  0  0  0  0  0  0  0
    4.8818    5.0445    0.0000 O   0  0  0  0  0  0  0  0  0  0  0  0
    2.6674    3.3773    0.0000 N   0  0  0  0  0  0  0  0  0  0  0  0
    1.1704    3.4695    0.0000 C   0  0  0  0  0  0  0  0  0  0  0  0
    0.3649    4.7349    0.0000 C   0  0  0  0  0  0  0  0  0  0  0  0
    1.0581    6.0652    0.0000 O   0  0  0  0  0  0  0  0  0  0  0  0
   -1.1337    4.6701    0.0000 O   0  0  0  0  0  0  0  0  0  0  0  0
  1  2  1  0  0  0  0
  2  3  1  0  0  0  0
  4  2  1  0  0  0  0
  2 20  1  0  0  0  0
  5  4  1  0  0  0  0
  6  5  1  0  0  0  0
  5 19  1  0  0  0  0
  6  7  1  0  0  0  0
 17  6  1  0  0  0  0
  7  8  1  0  0  0  0
  8  9  2  0  0  0  0
  8 10  1  0  0  0  0
 10 11  1  0  0  0  0
 12 10  1  0  0  0  0
 10 16  1  0  0  0  0
 13 12  1  0  0  0  0
 14 13  1  0  0  0  0
 15 14  1  0  0  0  0
 16 15  1  0  0  0  0
 17 18  2  0  0  0  0
 19 17  1  0  0  0  0
 20 19  1  0  0  0  0
 20 21  1  0  0  0  0
 21 22  2  0  0  0  0
 21 23  1  0  0  0  0
M  END
> <Inchi_key>
HGBLNBBNRORJKI-UHFFFAOYSA-N

> <Source>
Mulliner

> <ID>
HT0560

> <H_MFHB>
0

> <CAS>


> <Cholestasis>


> <Name>
cyclacillin

> <Class>
0


$$$$