
  -INDIGO-08031710012D

 19 20  0  0  0  0  0  0  0  0999 V2000
   10.1645    0.5391    0.0000 N   0  0  0  0  0  0  0  0  0  0  0  0
    8.8611    1.2815    0.0000 C   0  0  0  0  0  0  0  0  0  0  0  0
    8.8524    2.7814    0.0000 N   0  0  0  0  0  0  0  0  0  0  0  0
    7.5489    3.5239    0.0000 C   0  0  0  0  0  0  0  0  0  0  0  0
    6.2543    2.7663    0.0000 N   0  0  0  0  0  0  0  0  0  0  0  0
    6.2631    1.2663    0.0000 C   0  0  0  0  0  0  0  0  0  0  0  0
    4.9685    0.5088    0.0000 N   0  0  0  0  0  0  0  0  0  0  0  0
    3.6651    1.2512    0.0000 C   0  0  0  0  0  0  0  0  0  0  0  0
    3.4997    2.7420    0.0000 O   0  0  0  0  0  0  0  0  0  0  0  0
    2.0305    3.0453    0.0000 C   0  0  0  0  0  0  0  0  0  0  0  0
    1.4125    4.4120    0.0000 C   0  0  0  0  0  0  0  0  0  0  0  0
    2.2869    5.6307    0.0000 O   0  0  0  0  0  0  0  0  0  0  0  0
    1.2881    1.7419    0.0000 C   0  0  0  0  0  0  0  0  0  0  0  0
   -0.2027    1.5764    0.0000 O   0  0  0  0  0  0  0  0  0  0  0  0
    2.2983    0.6331    0.0000 C   0  0  0  0  0  0  0  0  0  0  0  0
    1.9949   -0.8360    0.0000 O   0  0  0  0  0  0  0  0  0  0  0  0
    7.5665    0.5240    0.0000 C   0  0  0  0  0  0  0  0  0  0  0  0
    7.5752   -0.9760    0.0000 N   0  0  0  0  0  0  0  0  0  0  0  0
    8.8785   -1.7184    0.0000 C   0  0  0  0  0  0  0  0  0  0  0  0
  1  2  1  0  0  0  0
  3  2  2  0  0  0  0
  2 17  1  0  0  0  0
  4  3  1  0  0  0  0
  5  4  2  0  0  0  0
  6  5  1  0  0  0  0
  6  7  1  0  0  0  0
 17  6  2  0  0  0  0
  7  8  1  0  0  0  0
  9  8  1  0  0  0  0
  8 15  1  0  0  0  0
 10  9  1  0  0  0  0
 10 11  1  0  0  0  0
 13 10  1  0  0  0  0
 11 12  1  0  0  0  0
 13 14  1  0  0  0  0
 15 13  1  0  0  0  0
 15 16  1  0  0  0  0
 17 18  1  0  0  0  0
 18 19  2  0  0  0  0
M  END
> <Inchi_key>
HSPACQNTTJUWNH-UHFFFAOYSA-N

> <Source>
Mulliner

> <ID>
HT3186

> <H_MFHB>
0

> <CAS>


> <Cholestasis>


> <Name>


> <Class>
0

$$$$