

  -INDIGO-08031710012D

 38 43  0  0  0  0  0  0  0  0999 V2000
   -1.4285   -1.8616    0.0000 C   0  0  0  0  0  0  0  0  0  0  0  0
   -1.0403   -3.3105    0.0000 N   0  0  0  0  0  0  0  0  0  0  0  0
   -0.6519   -4.7594    0.0000 C   0  0  0  0  0  0  0  0  0  0  0  0
    0.4088   -2.9222    0.0000 C   0  0  0  0  0  0  0  0  0  0  0  0
    1.4692   -3.9829    0.0000 C   0  0  0  0  0  0  0  0  0  0  0  0
    2.9183   -3.5947    0.0000 C   0  0  0  0  0  0  0  0  0  0  0  0
    3.9789   -4.6553    0.0000 C   0  0  0  0  0  0  0  0  0  0  0  0
    5.4277   -4.2671    0.0000 C   0  0  0  0  0  0  0  0  0  0  0  0
    6.4884   -5.3278    0.0000 C   0  0  0  0  0  0  0  0  0  0  0  0
    7.9372   -4.9395    0.0000 N   0  0  0  0  0  0  0  0  0  0  0  0
    7.5491   -3.4906    0.0000 C   0  0  0  0  0  0  0  0  0  0  0  0
    8.3257   -6.3884    0.0000 C   0  0  0  0  0  0  0  0  0  0  0  0
    9.3863   -4.5513    0.0000 C   0  0  0  0  0  0  0  0  0  0  0  0
    9.9237   -3.1509    0.0000 C   0  0  0  0  0  0  0  0  0  0  0  0
    9.2428   -1.8144    0.0000 C   0  0  0  0  0  0  0  0  0  0  0  0
   10.0597   -0.5564    0.0000 C   0  0  0  0  0  0  0  0  0  0  0  0
   11.5578   -0.6349    0.0000 C   0  0  0  0  0  0  0  0  0  0  0  0
   12.2386   -1.9714    0.0000 C   0  0  0  0  0  0  0  0  0  0  0  0
   11.4217   -3.2294    0.0000 C   0  0  0  0  0  0  0  0  0  0  0  0
   11.8099   -4.6783    0.0000 C   0  0  0  0  0  0  0  0  0  0  0  0
   13.1465   -5.3593    0.0000 C   0  0  0  0  0  0  0  0  0  0  0  0
   13.2250   -6.8573    0.0000 C   0  0  0  0  0  0  0  0  0  0  0  0
   11.9668   -7.6742    0.0000 C   0  0  0  0  0  0  0  0  0  0  0  0
   10.6305   -6.9932    0.0000 C   0  0  0  0  0  0  0  0  0  0  0  0
   10.5520   -5.4953    0.0000 C   0  0  0  0  0  0  0  0  0  0  0  0
   -2.4891   -3.6987    0.0000 C   0  0  0  0  0  0  0  0  0  0  0  0
   -3.0268   -5.0991    0.0000 C   0  0  0  0  0  0  0  0  0  0  0  0
   -2.3456   -6.4356    0.0000 C   0  0  0  0  0  0  0  0  0  0  0  0
   -3.1625   -7.6936    0.0000 C   0  0  0  0  0  0  0  0  0  0  0  0
   -4.6606   -7.6151    0.0000 C   0  0  0  0  0  0  0  0  0  0  0  0
   -5.3417   -6.2786    0.0000 C   0  0  0  0  0  0  0  0  0  0  0  0
   -4.5245   -5.0206    0.0000 C   0  0  0  0  0  0  0  0  0  0  0  0
   -4.9127   -3.5717    0.0000 C   0  0  0  0  0  0  0  0  0  0  0  0
   -6.2493   -2.8907    0.0000 C   0  0  0  0  0  0  0  0  0  0  0  0
   -6.3278   -1.3927    0.0000 C   0  0  0  0  0  0  0  0  0  0  0  0
   -5.0699   -0.5758    0.0000 C   0  0  0  0  0  0  0  0  0  0  0  0
   -3.7333   -1.2568    0.0000 C   0  0  0  0  0  0  0  0  0  0  0  0
   -3.6548   -2.7547    0.0000 C   0  0  0  0  0  0  0  0  0  0  0  0
  1  2  1  0  0  0  0
  2  3  1  0  0  0  0
  2  4  1  0  0  0  0
  2 26  1  0  0  0  0
  4  5  1  0  0  0  0
  5  6  1  0  0  0  0
  6  7  1  0  0  0  0
  7  8  1  0  0  0  0
  8  9  1  0  0  0  0
  9 10  1  0  0  0  0
 10 11  1  0  0  0  0
 10 12  1  0  0  0  0
 10 13  1  0  0  0  0
 14 13  1  0  0  0  0
 13 25  1  0  0  0  0
 15 14  2  0  0  0  0
 14 19  1  0  0  0  0
 16 15  1  0  0  0  0
 17 16  2  0  0  0  0
 18 17  1  0  0  0  0
 19 18  2  0  0  0  0
 20 19  1  0  0  0  0
 21 20  2  0  0  0  0
 20 25  1  0  0  0  0
 22 21  1  0  0  0  0
 23 22  2  0  0  0  0
 24 23  1  0  0  0  0
 25 24  2  0  0  0  0
 27 26  1  0  0  0  0
 26 38  1  0  0  0  0
 28 27  2  0  0  0  0
 27 32  1  0  0  0  0
 29 28  1  0  0  0  0
 30 29  2  0  0  0  0
 31 30  1  0  0  0  0
 32 31  2  0  0  0  0
 33 32  1  0  0  0  0
 34 33  2  0  0  0  0
 33 38  1  0  0  0  0
 35 34  1  0  0  0  0
 36 35  2  0  0  0  0
 37 36  1  0  0  0  0
 38 37  2  0  0  0  0
M  CHG  2   2   1  10   1
M  END
> <Inchi_key>
HDZAQYPYABGTCL-UHFFFAOYSA-N

> <Source>
Mulliner

> <ID>
HT1031

> <H_MFHB>
0

> <CAS>


> <Cholestasis>


> <Name>
hexafluronium

> <Class>
0


$$$$