
  -INDIGO-08031710012D

 12 12  0  0  0  0  0  0  0  0999 V2000
    0.0135   -4.2219    0.0000 N   0  0  0  0  0  0  0  0  0  0  0  0
   -0.7365   -2.9228    0.0000 C   0  0  0  0  0  0  0  0  0  0  0  0
   -2.2365   -2.9228    0.0000 O   0  0  0  0  0  0  0  0  0  0  0  0
    0.0135   -1.6238    0.0000 O   0  0  0  0  0  0  0  0  0  0  0  0
    1.5135   -1.6238    0.0000 C   0  0  0  0  0  0  0  0  0  0  0  0
    1.5135   -3.1238    0.0000 C   0  0  0  0  0  0  0  0  0  0  0  0
    2.8125   -3.8738    0.0000 C   0  0  0  0  0  0  0  0  0  0  0  0
    4.1115   -3.1238    0.0000 C   0  0  0  0  0  0  0  0  0  0  0  0
    4.1115   -1.6238    0.0000 C   0  0  0  0  0  0  0  0  0  0  0  0
    2.8125   -0.8738    0.0000 C   0  0  0  0  0  0  0  0  0  0  0  0
    0.7635   -0.3248    0.0000 C   0  0  0  0  0  0  0  0  0  0  0  0
    0.0135    0.9743    0.0000 C   0  0  0  0  0  0  0  0  0  0  0  0
  1  2  1  0  0  0  0
  2  3  2  0  0  0  0
  2  4  1  0  0  0  0
  4  5  1  0  0  0  0
  6  5  1  0  0  0  0
  5 10  1  0  0  0  0
  5 11  1  0  0  0  0
  7  6  1  0  0  0  0
  8  7  1  0  0  0  0
  9  8  1  0  0  0  0
 10  9  1  0  0  0  0
 11 12  3  0  0  0  0
M  END
> <Inchi_key>
GXRZIMHKGDIBEW-UHFFFAOYSA-N

> <Source>
Mulliner

> <ID>
HT0807

> <H_MFHB>
0

> <CAS>


> <Cholestasis>


> <Name>
ethinamate

> <Class>
0

$$$$