

  -INDIGO-08031710012D

 11 11  0  0  0  0  0  0  0  0999 V2000
    2.7435    2.7435    0.0000 N   0  0  0  0  0  0  0  0  0  0  0  0
    2.7435    1.2435    0.0000 C   0  0  0  0  0  0  0  0  0  0  0  0
    1.4445    0.4935    0.0000 C   0  0  0  0  0  0  0  0  0  0  0  0
    0.1454    1.2435    0.0000 C   0  0  0  0  0  0  0  0  0  0  0  0
   -1.2249    0.6334    0.0000 C   0  0  0  0  0  0  0  0  0  0  0  0
   -2.2286    1.7481    0.0000 N   0  0  0  0  0  0  0  0  0  0  0  0
   -1.4786    3.0471    0.0000 C   0  0  0  0  0  0  0  0  0  0  0  0
   -0.0114    2.7353    0.0000 N   0  0  0  0  0  0  0  0  0  0  0  0
    4.0425    0.4935    0.0000 C   0  0  0  0  0  0  0  0  0  0  0  0
    5.3416    1.2435    0.0000 O   0  0  0  0  0  0  0  0  0  0  0  0
    4.0425   -1.0065    0.0000 O   0  0  0  0  0  0  0  0  0  0  0  0
  1  2  1  0  0  0  0
  2  3  1  0  0  0  0
  2  9  1  0  0  0  0
  3  4  1  0  0  0  0
  5  4  2  0  0  0  0
  4  8  1  0  0  0  0
  6  5  1  0  0  0  0
  7  6  1  0  0  0  0
  8  7  2  0  0  0  0
  9 10  2  0  0  0  0
  9 11  1  0  0  0  0
M  END
> <Inchi_key>
HNDVDQJCIGZPNO-UHFFFAOYSA-N

> <Source>
Mulliner

> <ID>
HT1205

> <H_MFHB>
0

> <CAS>
71-00-1

> <Cholestasis>


> <Name>
l-histidine

> <Class>
0


$$$$