
  -INDIGO-08031710012D

 36 39  0  0  0  0  0  0  0  0999 V2000
    4.3470   10.5070    0.0000 C   0  0  0  0  0  0  0  0  0  0  0  0
    3.0478    9.7571    0.0000 O   0  0  0  0  0  0  0  0  0  0  0  0
    3.0478    8.2570    0.0000 C   0  0  0  0  0  0  0  0  0  0  0  0
    1.7489    7.5070    0.0000 C   0  0  0  0  0  0  0  0  0  0  0  0
    0.4497    8.2570    0.0000 O   0  0  0  0  0  0  0  0  0  0  0  0
    1.7489    6.0069    0.0000 O   0  0  0  0  0  0  0  0  0  0  0  0
    0.4497    5.2570    0.0000 C   0  0  0  0  0  0  0  0  0  0  0  0
    1.7489    4.5071    0.0000 C   0  0  0  0  0  0  0  0  0  0  0  0
    3.0478    5.2570    0.0000 C   0  0  0  0  0  0  0  0  0  0  0  0
    4.3470    4.5071    0.0000 N   0  0  0  0  0  0  0  0  0  0  0  0
    4.3470    3.0070    0.0000 C   0  0  0  0  0  0  0  0  0  0  0  0
    5.6459    5.2570    0.0000 C   0  0  0  0  0  0  0  0  0  0  0  0
    6.9448    4.5071    0.0000 C   0  0  0  0  0  0  0  0  0  0  0  0
    8.2440    5.2570    0.0000 C   0  0  0  0  0  0  0  0  0  0  0  0
    9.5429    4.5071    0.0000 C   0  0  0  0  0  0  0  0  0  0  0  0
   10.9133    5.1171    0.0000 N   0  0  0  0  0  0  0  0  0  0  0  0
   11.9171    4.0023    0.0000 C   0  0  0  0  0  0  0  0  0  0  0  0
   13.4171    4.0023    0.0000 C   0  0  0  0  0  0  0  0  0  0  0  0
   14.1670    2.7033    0.0000 C   0  0  0  0  0  0  0  0  0  0  0  0
   13.4171    1.4043    0.0000 C   0  0  0  0  0  0  0  0  0  0  0  0
   11.9171    1.4043    0.0000 C   0  0  0  0  0  0  0  0  0  0  0  0
   11.1669    2.7033    0.0000 C   0  0  0  0  0  0  0  0  0  0  0  0
    9.6997    3.0153    0.0000 N   0  0  0  0  0  0  0  0  0  0  0  0
   -0.3002    6.5560    0.0000 C   0  0  0  0  0  0  0  0  0  0  0  0
   -1.8002    6.5560    0.0000 C   0  0  0  0  0  0  0  0  0  0  0  0
   -2.5504    5.2570    0.0000 C   0  0  0  0  0  0  0  0  0  0  0  0
   -4.0504    5.2570    0.0000 C   0  0  0  0  0  0  0  0  0  0  0  0
   -4.8003    3.9580    0.0000 C   0  0  0  0  0  0  0  0  0  0  0  0
   -6.3003    3.9580    0.0000 F   0  0  0  0  0  0  0  0  0  0  0  0
   -4.0504    2.6589    0.0000 C   0  0  0  0  0  0  0  0  0  0  0  0
   -2.5504    2.6589    0.0000 C   0  0  0  0  0  0  0  0  0  0  0  0
   -1.8002    3.9580    0.0000 C   0  0  0  0  0  0  0  0  0  0  0  0
   -0.3002    3.9580    0.0000 C   0  0  0  0  0  0  0  0  0  0  0  0
    0.4497    2.6589    0.0000 C   0  0  0  0  0  0  0  0  0  0  0  0
    1.9497    2.6589    0.0000 C   0  0  0  0  0  0  0  0  0  0  0  0
   -0.3002    1.3599    0.0000 C   0  0  0  0  0  0  0  0  0  0  0  0
  1  2  1  0  0  0  0
  2  3  1  0  0  0  0
  3  4  1  0  0  0  0
  4  5  2  0  0  0  0
  4  6  1  0  0  0  0
  6  7  1  0  0  0  0
  7  8  1  0  0  0  0
 24  7  1  0  0  0  0
  7 33  1  0  0  0  0
  8  9  1  0  0  0  0
  9 10  1  0  0  0  0
 10 11  1  0  0  0  0
 10 12  1  0  0  0  0
 12 13  1  0  0  0  0
 13 14  1  0  0  0  0
 14 15  1  0  0  0  0
 16 15  2  0  0  0  0
 15 23  1  0  0  0  0
 17 16  1  0  0  0  0
 18 17  2  0  0  0  0
 17 22  1  0  0  0  0
 19 18  1  0  0  0  0
 20 19  2  0  0  0  0
 21 20  1  0  0  0  0
 22 21  2  0  0  0  0
 23 22  1  0  0  0  0
 25 24  1  0  0  0  0
 26 25  1  0  0  0  0
 27 26  2  0  0  0  0
 26 32  1  0  0  0  0
 28 27  1  0  0  0  0
 28 29  1  0  0  0  0
 30 28  2  0  0  0  0
 31 30  1  0  0  0  0
 32 31  2  0  0  0  0
 33 32  1  0  0  0  0
 33 34  1  0  0  0  0
 34 35  1  0  0  0  0
 34 36  1  0  0  0  0
M  END
> <Inchi_key>
HBNPJJILLOYFJU-UHFFFAOYSA-N

> <Source>
Mulliner , Kotsampasakou

> <ID>
EK0348;HT1390

> <H_MFHB>
0

> <CAS>


> <Cholestasis>
0

> <Name>
mibefradil

> <Class>
0

$$$$