

  -INDIGO-08031710012D

 23 25  0  0  0  0  0  0  0  0999 V2000
   13.2100    2.7225    0.0000 C   0  0  0  0  0  0  0  0  0  0  0  0
   11.8323    2.1294    0.0000 N   0  0  0  0  0  0  0  0  0  0  0  0
   13.0026    1.1913    0.0000 C   0  0  0  0  0  0  0  0  0  0  0  0
   11.0757    3.4246    0.0000 C   0  0  0  0  0  0  0  0  0  0  0  0
    9.6100    3.1053    0.0000 C   0  0  0  0  0  0  0  0  0  0  0  0
    9.4609    1.6128    0.0000 C   0  0  0  0  0  0  0  0  0  0  0  0
   10.8342    1.0096    0.0000 C   0  0  0  0  0  0  0  0  0  0  0  0
    8.1655    0.8562    0.0000 O   0  0  0  0  0  0  0  0  0  0  0  0
    6.8628    1.5996    0.0000 C   0  0  0  0  0  0  0  0  0  0  0  0
    6.8552    3.0996    0.0000 O   0  0  0  0  0  0  0  0  0  0  0  0
    5.5676    0.8430    0.0000 C   0  0  0  0  0  0  0  0  0  0  0  0
    6.3241   -0.4522    0.0000 O   0  0  0  0  0  0  0  0  0  0  0  0
    4.8110    2.1382    0.0000 C   0  0  0  0  0  0  0  0  0  0  0  0
    3.3184    2.2875    0.0000 C   0  0  0  0  0  0  0  0  0  0  0  0
    2.9991    3.7531    0.0000 C   0  0  0  0  0  0  0  0  0  0  0  0
    4.2942    4.5097    0.0000 C   0  0  0  0  0  0  0  0  0  0  0  0
    5.4141    3.5116    0.0000 C   0  0  0  0  0  0  0  0  0  0  0  0
    4.2722    0.0864    0.0000 C   0  0  0  0  0  0  0  0  0  0  0  0
    4.2800   -1.4135    0.0000 C   0  0  0  0  0  0  0  0  0  0  0  0
    2.9846   -2.1701    0.0000 C   0  0  0  0  0  0  0  0  0  0  0  0
    1.6819   -1.4267    0.0000 C   0  0  0  0  0  0  0  0  0  0  0  0
    1.6743    0.0733    0.0000 C   0  0  0  0  0  0  0  0  0  0  0  0
    2.9695    0.8299    0.0000 C   0  0  0  0  0  0  0  0  0  0  0  0
  1  2  1  0  0  0  0
  2  3  1  0  0  0  0
  4  2  1  0  0  0  0
  2  7  1  0  0  0  0
  5  4  1  0  0  0  0
  6  5  1  0  0  0  0
  7  6  1  0  0  0  0
  6  8  1  0  0  0  0
  8  9  1  0  0  0  0
  9 10  2  0  0  0  0
  9 11  1  0  0  0  0
 11 12  1  0  0  0  0
 11 13  1  0  0  0  0
 11 18  1  0  0  0  0
 14 13  1  0  0  0  0
 13 17  1  0  0  0  0
 15 14  1  0  0  0  0
 16 15  1  0  0  0  0
 17 16  1  0  0  0  0
 19 18  2  0  0  0  0
 18 23  1  0  0  0  0
 20 19  1  0  0  0  0
 21 20  2  0  0  0  0
 22 21  1  0  0  0  0
 23 22  2  0  0  0  0
M  CHG  1   2   1
M  END
> <Inchi_key>
ANGKOCUUWGHLCE-UHFFFAOYSA-N

> <Source>
Mulliner

> <ID>
HT0999

> <H_MFHB>
0

> <CAS>


> <Cholestasis>


> <Name>
glycopyrrolate

> <Class>
0


$$$$