
  -INDIGO-08031710012D

 28 29  0  0  0  0  0  0  0  0999 V2000
   -2.9887   11.1540    0.0000 C   0  0  0  0  0  0  0  0  0  0  0  0
   -1.6898   11.9040    0.0000 C   0  0  0  0  0  0  0  0  0  0  0  0
   -1.6898   13.4040    0.0000 O   0  0  0  0  0  0  0  0  0  0  0  0
   -0.3906   11.1540    0.0000 N   0  0  0  0  0  0  0  0  0  0  0  0
   -0.3906    9.6540    0.0000 C   0  0  0  0  0  0  0  0  0  0  0  0
    0.9083    8.9040    0.0000 C   0  0  0  0  0  0  0  0  0  0  0  0
    0.9083    7.4040    0.0000 O   0  0  0  0  0  0  0  0  0  0  0  0
    2.2075    6.6540    0.0000 C   0  0  0  0  0  0  0  0  0  0  0  0
    3.5066    7.4040    0.0000 O   0  0  0  0  0  0  0  0  0  0  0  0
    2.2075    5.1540    0.0000 C   0  0  0  0  0  0  0  0  0  0  0  0
    3.5066    4.4040    0.0000 O   0  0  0  0  0  0  0  0  0  0  0  0
    4.8055    5.1540    0.0000 C   0  0  0  0  0  0  0  0  0  0  0  0
    6.1047    4.4040    0.0000 C   0  0  0  0  0  0  0  0  0  0  0  0
    7.4036    5.1540    0.0000 C   0  0  0  0  0  0  0  0  0  0  0  0
    7.4036    6.6540    0.0000 C   0  0  0  0  0  0  0  0  0  0  0  0
    6.1047    7.4040    0.0000 C   0  0  0  0  0  0  0  0  0  0  0  0
    4.8055    6.6540    0.0000 C   0  0  0  0  0  0  0  0  0  0  0  0
    8.7026    7.4040    0.0000 C   0  0  0  0  0  0  0  0  0  0  0  0
    7.9527    8.7030    0.0000 F   0  0  0  0  0  0  0  0  0  0  0  0
   10.0017    8.1540    0.0000 F   0  0  0  0  0  0  0  0  0  0  0  0
    9.4526    6.1048    0.0000 F   0  0  0  0  0  0  0  0  0  0  0  0
    0.9083    4.4040    0.0000 C   0  0  0  0  0  0  0  0  0  0  0  0
    0.9083    2.9040    0.0000 C   0  0  0  0  0  0  0  0  0  0  0  0
   -0.3906    2.1540    0.0000 C   0  0  0  0  0  0  0  0  0  0  0  0
   -1.6898    2.9040    0.0000 C   0  0  0  0  0  0  0  0  0  0  0  0
   -2.9887    2.1540    0.0000 Cl  0  0  0  0  0  0  0  0  0  0  0  0
   -1.6898    4.4040    0.0000 C   0  0  0  0  0  0  0  0  0  0  0  0
   -0.3906    5.1540    0.0000 C   0  0  0  0  0  0  0  0  0  0  0  0
  1  2  1  0  0  0  0
  2  3  2  0  0  0  0
  2  4  1  0  0  0  0
  4  5  1  0  0  0  0
  5  6  1  0  0  0  0
  6  7  1  0  0  0  0
  7  8  1  0  0  0  0
  8  9  2  0  0  0  0
  8 10  1  0  0  0  0
 10 11  1  0  0  0  0
 10 22  1  0  0  0  0
 11 12  1  0  0  0  0
 13 12  2  0  0  0  0
 12 17  1  0  0  0  0
 14 13  1  0  0  0  0
 15 14  2  0  0  0  0
 16 15  1  0  0  0  0
 15 18  1  0  0  0  0
 17 16  2  0  0  0  0
 18 19  1  0  0  0  0
 18 20  1  0  0  0  0
 18 21  1  0  0  0  0
 23 22  2  0  0  0  0
 22 28  1  0  0  0  0
 24 23  1  0  0  0  0
 25 24  2  0  0  0  0
 25 26  1  0  0  0  0
 27 25  1  0  0  0  0
 28 27  2  0  0  0  0
M  END
> <Inchi_key>
HCVIESKVXGEJID-UHFFFAOYSA-N

> <Source>
Mulliner

> <ID>
HT3797

> <H_MFHB>
0

> <CAS>


> <Cholestasis>


> <Name>


> <Class>
0

$$$$