

  -INDIGO-08031710012D

 26 26  0  0  0  0  0  0  0  0999 V2000
   -2.2265    2.4825    0.0000 C   0  0  0  0  0  0  0  0  0  0  0  0
   -0.9276    1.7325    0.0000 N   0  0  0  0  0  0  0  0  0  0  0  0
   -0.9276    0.2325    0.0000 C   0  0  0  0  0  0  0  0  0  0  0  0
    0.3716    2.4825    0.0000 C   0  0  0  0  0  0  0  0  0  0  0  0
    1.6705    1.7325    0.0000 O   0  0  0  0  0  0  0  0  0  0  0  0
    0.3716    3.9825    0.0000 O   0  0  0  0  0  0  0  0  0  0  0  0
    1.6705    4.7325    0.0000 C   0  0  0  0  0  0  0  0  0  0  0  0
    1.6705    6.2325    0.0000 C   0  0  0  0  0  0  0  0  0  0  0  0
    2.9697    6.9825    0.0000 C   0  0  0  0  0  0  0  0  0  0  0  0
    2.9697    8.4825    0.0000 O   0  0  0  0  0  0  0  0  0  0  0  0
    1.6705    9.2325    0.0000 C   0  0  0  0  0  0  0  0  0  0  0  0
    0.3716    8.4825    0.0000 O   0  0  0  0  0  0  0  0  0  0  0  0
    1.6705   10.7325    0.0000 N   0  0  0  0  0  0  0  0  0  0  0  0
    0.3716   11.4825    0.0000 C   0  0  0  0  0  0  0  0  0  0  0  0
    2.9697   11.4825    0.0000 C   0  0  0  0  0  0  0  0  0  0  0  0
    4.2688    6.2325    0.0000 C   0  0  0  0  0  0  0  0  0  0  0  0
    4.2688    4.7325    0.0000 C   0  0  0  0  0  0  0  0  0  0  0  0
    2.9697    3.9825    0.0000 C   0  0  0  0  0  0  0  0  0  0  0  0
    5.5677    3.9825    0.0000 C   0  0  0  0  0  0  0  0  0  0  0  0
    5.5677    2.4825    0.0000 O   0  0  0  0  0  0  0  0  0  0  0  0
    6.8669    4.7325    0.0000 C   0  0  0  0  0  0  0  0  0  0  0  0
    8.1658    3.9825    0.0000 N   0  0  0  0  0  0  0  0  0  0  0  0
    9.4648    4.7325    0.0000 C   0  0  0  0  0  0  0  0  0  0  0  0
   10.2148    3.4335    0.0000 C   0  0  0  0  0  0  0  0  0  0  0  0
    8.7149    6.0317    0.0000 C   0  0  0  0  0  0  0  0  0  0  0  0
   10.7639    5.4825    0.0000 C   0  0  0  0  0  0  0  0  0  0  0  0
  1  2  1  0  0  0  0
  2  3  1  0  0  0  0
  2  4  1  0  0  0  0
  4  5  2  0  0  0  0
  4  6  1  0  0  0  0
  6  7  1  0  0  0  0
  8  7  2  0  0  0  0
  7 18  1  0  0  0  0
  9  8  1  0  0  0  0
  9 10  1  0  0  0  0
 16  9  2  0  0  0  0
 10 11  1  0  0  0  0
 11 12  2  0  0  0  0
 11 13  1  0  0  0  0
 13 14  1  0  0  0  0
 13 15  1  0  0  0  0
 17 16  1  0  0  0  0
 18 17  2  0  0  0  0
 17 19  1  0  0  0  0
 19 20  1  0  0  0  0
 19 21  1  0  0  0  0
 21 22  1  0  0  0  0
 22 23  1  0  0  0  0
 23 24  1  0  0  0  0
 23 25  1  0  0  0  0
 23 26  1  0  0  0  0
M  END
> <Inchi_key>
ANZXOIAKUNOVQU-UHFFFAOYSA-N

> <Source>
Mulliner

> <ID>
HT0225

> <H_MFHB>
0

> <CAS>
81732-65-2

> <Cholestasis>


> <Name>
bambuterol

> <Class>
0


$$$$