

  -INDIGO-08031709442D

 10 10  0  0  0  0  0  0  0  0999 V2000
   -0.3750    3.2476    0.0000 O   0  0  0  0  0  0  0  0  0  0  0  0
    0.3750    1.9486    0.0000 C   0  0  0  0  0  0  0  0  0  0  0  0
   -0.3750    0.6495    0.0000 O   0  0  0  0  0  0  0  0  0  0  0  0
    1.8750    1.9486    0.0000 C   0  0  0  0  0  0  0  0  0  0  0  0
    2.6250    0.6495    0.0000 C   0  0  0  0  0  0  0  0  0  0  0  0
    4.1250    0.6495    0.0000 C   0  0  0  0  0  0  0  0  0  0  0  0
    4.8750    1.9486    0.0000 C   0  0  0  0  0  0  0  0  0  0  0  0
    6.3750    1.9486    0.0000 N   0  0  0  0  0  0  0  0  0  0  0  0
    4.1250    3.2476    0.0000 C   0  0  0  0  0  0  0  0  0  0  0  0
    2.6250    3.2476    0.0000 C   0  0  0  0  0  0  0  0  0  0  0  0
  1  2  1  0  0  0  0
  2  3  2  0  0  0  0
  2  4  1  0  0  0  0
  5  4  2  0  0  0  0
  4 10  1  0  0  0  0
  6  5  1  0  0  0  0
  7  6  2  0  0  0  0
  7  8  1  0  0  0  0
  9  7  1  0  0  0  0
 10  9  2  0  0  0  0
M  END
> <Inchi_key>
ALYNCZNDIQEVRV-UHFFFAOYSA-N

> <Source>
Kotsampasakou

> <ID>
EK0028

> <H_MFHB>


> <CAS>


> <Cholestasis>
0

> <Name>
aminobenzoate

> <Class>
0


$$$$