

  -INDIGO-08031710012D

 13 14  0  0  0  0  0  0  0  0999 V2000
    0.2043   -0.6383    0.0000 N   0  0  0  0  0  0  0  0  0  0  0  0
    1.4256    0.2326    0.0000 C   0  0  0  0  0  0  0  0  0  0  0  0
    2.8480   -0.2435    0.0000 O   0  0  0  0  0  0  0  0  0  0  0  0
    3.7404    0.9622    0.0000 C   0  0  0  0  0  0  0  0  0  0  0  0
    2.8694    2.1834    0.0000 C   0  0  0  0  0  0  0  0  0  0  0  0
    3.3456    3.6059    0.0000 O   0  0  0  0  0  0  0  0  0  0  0  0
    1.4388    1.7325    0.0000 N   0  0  0  0  0  0  0  0  0  0  0  0
    5.2403    0.9489    0.0000 C   0  0  0  0  0  0  0  0  0  0  0  0
    6.0018    2.2412    0.0000 C   0  0  0  0  0  0  0  0  0  0  0  0
    7.5017    2.2280    0.0000 C   0  0  0  0  0  0  0  0  0  0  0  0
    8.2402    0.9224    0.0000 C   0  0  0  0  0  0  0  0  0  0  0  0
    7.4787   -0.3700    0.0000 C   0  0  0  0  0  0  0  0  0  0  0  0
    5.9788   -0.3567    0.0000 C   0  0  0  0  0  0  0  0  0  0  0  0
  1  2  1  0  0  0  0
  3  2  1  0  0  0  0
  2  7  2  0  0  0  0
  4  3  1  0  0  0  0
  5  4  2  0  0  0  0
  4  8  1  0  0  0  0
  5  6  1  0  0  0  0
  7  5  1  0  0  0  0
  9  8  2  0  0  0  0
  8 13  1  0  0  0  0
 10  9  1  0  0  0  0
 11 10  2  0  0  0  0
 12 11  1  0  0  0  0
 13 12  2  0  0  0  0
M  END
> <Inchi_key>
HDOVLPFABNJQJO-UHFFFAOYSA-N

> <Source>
Mulliner

> <ID>
HT1609

> <H_MFHB>
0

> <CAS>
2152-34-3

> <Cholestasis>


> <Name>
pemoline

> <Class>
0


$$$$