
  -INDIGO-08031710012D

 18 20  0  0  0  0  0  0  0  0999 V2000
    0.0538    0.2010    0.0000 Cl  0  0  0  0  0  0  0  0  0  0  0  0
    1.3529   -0.5490    0.0000 C   0  0  0  0  0  0  0  0  0  0  0  0
    2.6519    0.2010    0.0000 C   0  0  0  0  0  0  0  0  0  0  0  0
    3.9510   -0.5490    0.0000 C   0  0  0  0  0  0  0  0  0  0  0  0
    5.2499    0.2010    0.0000 O   0  0  0  0  0  0  0  0  0  0  0  0
    6.5490   -0.5490    0.0000 C   0  0  0  0  0  0  0  0  0  0  0  0
    7.8481    0.2010    0.0000 C   0  0  0  0  0  0  0  0  0  0  0  0
    9.1471   -0.5490    0.0000 C   0  0  0  0  0  0  0  0  0  0  0  0
   10.4462    0.2010    0.0000 Cl  0  0  0  0  0  0  0  0  0  0  0  0
    9.1471   -2.0490    0.0000 C   0  0  0  0  0  0  0  0  0  0  0  0
   10.4462   -2.7990    0.0000 Cl  0  0  0  0  0  0  0  0  0  0  0  0
    7.8481   -2.7990    0.0000 C   0  0  0  0  0  0  0  0  0  0  0  0
    6.5490   -2.0490    0.0000 C   0  0  0  0  0  0  0  0  0  0  0  0
    5.2499   -2.7990    0.0000 O   0  0  0  0  0  0  0  0  0  0  0  0
    3.9510   -2.0490    0.0000 C   0  0  0  0  0  0  0  0  0  0  0  0
    2.6519   -2.7990    0.0000 C   0  0  0  0  0  0  0  0  0  0  0  0
    1.3529   -2.0490    0.0000 C   0  0  0  0  0  0  0  0  0  0  0  0
    0.0538   -2.7990    0.0000 Cl  0  0  0  0  0  0  0  0  0  0  0  0
  1  2  1  0  0  0  0
  3  2  2  0  0  0  0
  2 17  1  0  0  0  0
  4  3  1  0  0  0  0
  5  4  1  0  0  0  0
  4 15  2  0  0  0  0
  6  5  1  0  0  0  0
  7  6  2  0  0  0  0
  6 13  1  0  0  0  0
  8  7  1  0  0  0  0
  8  9  1  0  0  0  0
 10  8  2  0  0  0  0
 10 11  1  0  0  0  0
 12 10  1  0  0  0  0
 13 12  2  0  0  0  0
 14 13  1  0  0  0  0
 15 14  1  0  0  0  0
 16 15  1  0  0  0  0
 17 16  2  0  0  0  0
 17 18  1  0  0  0  0
M  END
> <Inchi_key>
HGUFODBRKLSHSI-UHFFFAOYSA-N

> <Source>
Mulliner

> <ID>
HT0028

> <H_MFHB>
0

> <CAS>
1/6/1746

> <Cholestasis>


> <Name>
2,3,7,8-tetrachlorodibenzo-p-dioxin

> <Class>
0

$$$$