

  -INDIGO-08031710012D

 19 18  0  0  0  0  0  0  0  0999 V2000
   13.8683   -2.8476    0.0000 C   0  0  0  0  0  0  0  0  0  0  0  0
   12.5692   -3.5976    0.0000 C   0  0  0  0  0  0  0  0  0  0  0  0
   11.2703   -2.8476    0.0000 C   0  0  0  0  0  0  0  0  0  0  0  0
    9.9712   -3.5976    0.0000 C   0  0  0  0  0  0  0  0  0  0  0  0
    8.6721   -2.8476    0.0000 C   0  0  0  0  0  0  0  0  0  0  0  0
    8.6721   -1.3476    0.0000 C   0  0  0  0  0  0  0  0  0  0  0  0
    9.9712   -0.5976    0.0000 C   0  0  0  0  0  0  0  0  0  0  0  0
    7.3731   -3.5976    0.0000 C   0  0  0  0  0  0  0  0  0  0  0  0
    6.0740   -2.8476    0.0000 C   0  0  0  0  0  0  0  0  0  0  0  0
    4.7749   -3.5976    0.0000 C   0  0  0  0  0  0  0  0  0  0  0  0
    3.4760   -2.8476    0.0000 C   0  0  0  0  0  0  0  0  0  0  0  0
    3.4760   -1.3476    0.0000 C   0  0  0  0  0  0  0  0  0  0  0  0
    4.7749   -0.5976    0.0000 C   0  0  0  0  0  0  0  0  0  0  0  0
    2.1769   -0.5976    0.0000 C   0  0  0  0  0  0  0  0  0  0  0  0
    4.7749   -5.0976    0.0000 O   0  0  0  0  0  0  0  0  0  0  0  0
    3.4760   -5.8476    0.0000 S   0  0  0  0  0  0  0  0  0  0  0  0
    2.7260   -4.5485    0.0000 O   0  0  0  0  0  0  0  0  0  0  0  0
    4.2260   -7.1466    0.0000 O   0  0  0  0  0  0  0  0  0  0  0  0
    2.1769   -6.5976    0.0000 O   0  0  0  0  0  0  0  0  0  0  0  0
  1  2  1  0  0  0  0
  2  3  1  0  0  0  0
  3  4  1  0  0  0  0
  4  5  1  0  0  0  0
  5  6  1  0  0  0  0
  5  8  1  0  0  0  0
  6  7  1  0  0  0  0
  8  9  1  0  0  0  0
  9 10  1  0  0  0  0
 10 11  1  0  0  0  0
 10 15  1  0  0  0  0
 11 12  1  0  0  0  0
 12 13  1  0  0  0  0
 12 14  1  0  0  0  0
 15 16  1  0  0  0  0
 16 17  2  0  0  0  0
 16 18  2  0  0  0  0
 16 19  1  0  0  0  0
M  END
> <Inchi_key>
GROJOWHVXQYQGN-UHFFFAOYSA-N

> <Source>
Mulliner

> <ID>
HT1903

> <H_MFHB>
0

> <CAS>


> <Cholestasis>


> <Name>
sodium tetradecyl sulfate

> <Class>
0


$$$$