

  -INDIGO-08031710012D

 31 32  0  0  0  0  0  0  0  0999 V2000
    5.5717    8.3866    0.0000 C   0  0  0  0  0  0  0  0  0  0  0  0
    6.3219    9.6856    0.0000 C   0  0  0  0  0  0  0  0  0  0  0  0
    7.8218    9.6856    0.0000 C   0  0  0  0  0  0  0  0  0  0  0  0
    5.5717   10.9846    0.0000 C   0  0  0  0  0  0  0  0  0  0  0  0
    4.0718   10.9846    0.0000 C   0  0  0  0  0  0  0  0  0  0  0  0
    3.3217   12.2838    0.0000 C   0  0  0  0  0  0  0  0  0  0  0  0
    1.8218   12.2838    0.0000 C   0  0  0  0  0  0  0  0  0  0  0  0
    1.0716   13.5827    0.0000 C   0  0  0  0  0  0  0  0  0  0  0  0
    1.0716   10.9846    0.0000 C   0  0  0  0  0  0  0  0  0  0  0  0
   -0.4283   10.9846    0.0000 C   0  0  0  0  0  0  0  0  0  0  0  0
   -1.1781    9.6856    0.0000 C   0  0  0  0  0  0  0  0  0  0  0  0
   -2.6783    9.6856    0.0000 C   0  0  0  0  0  0  0  0  0  0  0  0
   -3.4281   10.9846    0.0000 C   0  0  0  0  0  0  0  0  0  0  0  0
   -3.4281    8.3866    0.0000 C   0  0  0  0  0  0  0  0  0  0  0  0
   -4.9281    8.3866    0.0000 C   0  0  0  0  0  0  0  0  0  0  0  0
   -5.6782    7.0875    0.0000 C   0  0  0  0  0  0  0  0  0  0  0  0
   -7.1781    7.0875    0.0000 C   0  0  0  0  0  0  0  0  0  0  0  0
   -6.4283    5.7885    0.0000 C   0  0  0  0  0  0  0  0  0  0  0  0
   -7.1781    8.5875    0.0000 C   0  0  0  0  0  0  0  0  0  0  0  0
   -8.4773    9.3375    0.0000 C   0  0  0  0  0  0  0  0  0  0  0  0
   -9.7762    8.5875    0.0000 C   0  0  0  0  0  0  0  0  0  0  0  0
  -11.0753    9.3375    0.0000 C   0  0  0  0  0  0  0  0  0  0  0  0
  -11.0753   10.8375    0.0000 C   0  0  0  0  0  0  0  0  0  0  0  0
  -12.3742    8.5875    0.0000 C   0  0  0  0  0  0  0  0  0  0  0  0
  -13.6734    9.3375    0.0000 O   0  0  0  0  0  0  0  0  0  0  0  0
  -12.3742    7.0875    0.0000 C   0  0  0  0  0  0  0  0  0  0  0  0
  -13.6734    6.3375    0.0000 C   0  0  0  0  0  0  0  0  0  0  0  0
  -11.0753    6.3375    0.0000 C   0  0  0  0  0  0  0  0  0  0  0  0
  -11.0753    4.8375    0.0000 C   0  0  0  0  0  0  0  0  0  0  0  0
   -9.7762    7.0875    0.0000 C   0  0  0  0  0  0  0  0  0  0  0  0
   -8.4773    6.3375    0.0000 O   0  0  0  0  0  0  0  0  0  0  0  0
  1  2  1  0  0  0  0
  2  3  1  0  0  0  0
  2  4  1  0  0  0  0
  4  5  1  0  0  0  0
  5  6  1  0  0  0  0
  6  7  1  0  0  0  0
  7  8  1  0  0  0  0
  7  9  1  0  0  0  0
  9 10  1  0  0  0  0
 10 11  1  0  0  0  0
 11 12  1  0  0  0  0
 12 13  1  0  0  0  0
 12 14  1  0  0  0  0
 14 15  1  0  0  0  0
 15 16  1  0  0  0  0
 16 17  1  0  0  0  0
 17 18  1  0  0  0  0
 19 17  1  0  0  0  0
 17 31  1  0  0  0  0
 20 19  1  0  0  0  0
 21 20  1  0  0  0  0
 22 21  1  0  0  0  0
 21 30  2  0  0  0  0
 22 23  1  0  0  0  0
 24 22  2  0  0  0  0
 24 25  1  0  0  0  0
 26 24  1  0  0  0  0
 26 27  1  0  0  0  0
 28 26  2  0  0  0  0
 28 29  1  0  0  0  0
 30 28  1  0  0  0  0
 31 30  1  0  0  0  0
M  END
> <Inchi_key>
GVJHHUAWPYXKBD-UHFFFAOYSA-N

> <Source>
Mulliner

> <ID>
HT2191

> <H_MFHB>
0

> <CAS>
10191-41-0;59-02-9

> <Cholestasis>


> <Name>
vitamin e

> <Class>
0


$$$$