

  -INDIGO-08031710012D

 14 14  0  0  0  0  0  0  0  0999 V2000
    0.3322   -2.7245    0.0000 N   0  0  0  0  0  0  0  0  0  0  0  0
    1.6313   -1.9745    0.0000 C   0  0  0  0  0  0  0  0  0  0  0  0
    1.6313   -0.4745    0.0000 C   0  0  0  0  0  0  0  0  0  0  0  0
    2.9303    0.2755    0.0000 C   0  0  0  0  0  0  0  0  0  0  0  0
    4.2294   -0.4745    0.0000 C   0  0  0  0  0  0  0  0  0  0  0  0
    4.2294   -1.9745    0.0000 C   0  0  0  0  0  0  0  0  0  0  0  0
    2.9303   -2.7245    0.0000 C   0  0  0  0  0  0  0  0  0  0  0  0
    5.5284    0.2755    0.0000 C   0  0  0  0  0  0  0  0  0  0  0  0
    5.5284    1.7755    0.0000 O   0  0  0  0  0  0  0  0  0  0  0  0
    6.8273   -0.4745    0.0000 N   0  0  0  0  0  0  0  0  0  0  0  0
    8.1264    0.2755    0.0000 C   0  0  0  0  0  0  0  0  0  0  0  0
    9.4254   -0.4745    0.0000 C   0  0  0  0  0  0  0  0  0  0  0  0
    9.4254   -1.9745    0.0000 O   0  0  0  0  0  0  0  0  0  0  0  0
   10.7245    0.2755    0.0000 O   0  0  0  0  0  0  0  0  0  0  0  0
  1  2  1  0  0  0  0
  3  2  2  0  0  0  0
  2  7  1  0  0  0  0
  4  3  1  0  0  0  0
  5  4  2  0  0  0  0
  6  5  1  0  0  0  0
  5  8  1  0  0  0  0
  7  6  2  0  0  0  0
  8  9  2  0  0  0  0
  8 10  1  0  0  0  0
 10 11  1  0  0  0  0
 11 12  1  0  0  0  0
 12 13  2  0  0  0  0
 12 14  1  0  0  0  0
M  END
> <Inchi_key>
HSMNQINEKMPTIC-UHFFFAOYSA-N

> <Source>
Mulliner

> <ID>
HT0135

> <H_MFHB>
0

> <CAS>


> <Cholestasis>


> <Name>
aminohippurate;p-aminohippuric acid

> <Class>
0


$$$$