
  -INDIGO-08031710012D

 29 32  0  0  0  0  0  0  0  0999 V2000
   -1.4022    9.2732    0.0000 C   0  0  0  0  0  0  0  0  0  0  0  0
   -1.3927    7.7731    0.0000 C   0  0  0  0  0  0  0  0  0  0  0  0
   -0.0890    7.0315    0.0000 O   0  0  0  0  0  0  0  0  0  0  0  0
   -0.0793    5.5315    0.0000 C   0  0  0  0  0  0  0  0  0  0  0  0
   -1.3736    4.7733    0.0000 C   0  0  0  0  0  0  0  0  0  0  0  0
   -1.3640    3.2733    0.0000 C   0  0  0  0  0  0  0  0  0  0  0  0
   -0.0602    2.5316    0.0000 C   0  0  0  0  0  0  0  0  0  0  0  0
   -0.0508    1.0317    0.0000 C   0  0  0  0  0  0  0  0  0  0  0  0
    1.2532    0.2899    0.0000 C   0  0  0  0  0  0  0  0  0  0  0  0
    2.5473    1.0482    0.0000 C   0  0  0  0  0  0  0  0  0  0  0  0
    2.5379    2.5481    0.0000 C   0  0  0  0  0  0  0  0  0  0  0  0
    1.2341    3.2898    0.0000 C   0  0  0  0  0  0  0  0  0  0  0  0
    1.2244    4.7897    0.0000 C   0  0  0  0  0  0  0  0  0  0  0  0
    2.5188    5.5482    0.0000 C   0  0  0  0  0  0  0  0  0  0  0  0
    2.5091    7.0481    0.0000 O   0  0  0  0  0  0  0  0  0  0  0  0
    3.8225    4.8064    0.0000 N   0  0  0  0  0  0  0  0  0  0  0  0
    5.1167    5.5646    0.0000 C   0  0  0  0  0  0  0  0  0  0  0  0
    6.5680    5.1856    0.0000 C   0  0  0  0  0  0  0  0  0  0  0  0
    7.8312    4.3768    0.0000 S   0  0  0  0  0  0  0  0  0  0  0  0
    8.9909    5.3281    0.0000 C   0  0  0  0  0  0  0  0  0  0  0  0
   10.4356    5.7318    0.0000 C   0  0  0  0  0  0  0  0  0  0  0  0
   10.0161    4.2330    0.0000 C   0  0  0  0  0  0  0  0  0  0  0  0
    8.4445    6.7251    0.0000 C   0  0  0  0  0  0  0  0  0  0  0  0
    6.9469    6.6369    0.0000 N   0  0  0  0  0  0  0  0  0  0  0  0
    5.4957    7.0160    0.0000 C   0  0  0  0  0  0  0  0  0  0  0  0
    4.7376    8.3103    0.0000 O   0  0  0  0  0  0  0  0  0  0  0  0
    9.2535    7.9882    0.0000 C   0  0  0  0  0  0  0  0  0  0  0  0
   10.7518    7.9192    0.0000 O   0  0  0  0  0  0  0  0  0  0  0  0
    8.5639    9.3203    0.0000 O   0  0  0  0  0  0  0  0  0  0  0  0
  1  2  1  0  0  0  0
  2  3  1  0  0  0  0
  3  4  1  0  0  0  0
  5  4  2  0  0  0  0
  4 13  1  0  0  0  0
  6  5  1  0  0  0  0
  7  6  2  0  0  0  0
  8  7  1  0  0  0  0
  7 12  1  0  0  0  0
  9  8  2  0  0  0  0
 10  9  1  0  0  0  0
 11 10  2  0  0  0  0
 12 11  1  0  0  0  0
 13 12  2  0  0  0  0
 13 14  1  0  0  0  0
 14 15  2  0  0  0  0
 14 16  1  0  0  0  0
 16 17  1  0  0  0  0
 18 17  1  0  0  0  0
 17 25  1  0  0  0  0
 19 18  1  0  0  0  0
 18 24  1  0  0  0  0
 20 19  1  0  0  0  0
 20 21  1  0  0  0  0
 20 22  1  0  0  0  0
 23 20  1  0  0  0  0
 24 23  1  0  0  0  0
 23 27  1  0  0  0  0
 25 24  1  0  0  0  0
 25 26  2  0  0  0  0
 27 28  2  0  0  0  0
 27 29  1  0  0  0  0
M  END
> <Inchi_key>
GPXLMGHLHQJAGZ-UHFFFAOYSA-N

> <Source>
Mulliner , Kotsampasakou

> <ID>
EK0367;HT1452

> <H_MFHB>
0

> <CAS>


> <Cholestasis>
0

> <Name>
nafcillin sodium;nafcillin

> <Class>
0

$$$$