
  -INDIGO-08031710012D

 22 25  0  0  0  0  0  0  0  0999 V2000
   -0.0115    0.0221    0.0000 C   0  0  0  0  0  0  0  0  0  0  0  0
    0.8439    1.2542    0.0000 C   0  0  0  0  0  0  0  0  0  0  0  0
    1.5990   -0.0418    0.0000 C   0  0  0  0  0  0  0  0  0  0  0  0
    3.0990   -0.0359    0.0000 C   0  0  0  0  0  0  0  0  0  0  0  0
    3.8439    1.2662    0.0000 C   0  0  0  0  0  0  0  0  0  0  0  0
    3.0888    2.5622    0.0000 C   0  0  0  0  0  0  0  0  0  0  0  0
    3.8337    3.8642    0.0000 C   0  0  0  0  0  0  0  0  0  0  0  0
    5.3335    3.8702    0.0000 C   0  0  0  0  0  0  0  0  0  0  0  0
    6.0886    2.5741    0.0000 C   0  0  0  0  0  0  0  0  0  0  0  0
    5.3439    1.2721    0.0000 C   0  0  0  0  0  0  0  0  0  0  0  0
    6.0991   -0.0239    0.0000 C   0  0  0  0  0  0  0  0  0  0  0  0
    7.5991   -0.0179    0.0000 C   0  0  0  0  0  0  0  0  0  0  0  0
    8.3440    1.2841    0.0000 C   0  0  0  0  0  0  0  0  0  0  0  0
    9.8438    1.2900    0.0000 O   0  0  0  0  0  0  0  0  0  0  0  0
    7.5886    2.5801    0.0000 C   0  0  0  0  0  0  0  0  0  0  0  0
    1.5888    2.5562    0.0000 C   0  0  0  0  0  0  0  0  0  0  0  0
    0.5805    3.6669    0.0000 C   0  0  0  0  0  0  0  0  0  0  0  0
   -0.7873    3.0514    0.0000 C   0  0  0  0  0  0  0  0  0  0  0  0
   -0.6246    1.5602    0.0000 C   0  0  0  0  0  0  0  0  0  0  0  0
   -1.1072    0.1400    0.0000 O   0  0  0  0  0  0  0  0  0  0  0  0
   -2.1051    1.3197    0.0000 C   0  0  0  0  0  0  0  0  0  0  0  0
   -3.5857    1.0792    0.0000 C   0  0  0  0  0  0  0  0  0  0  0  0
  1  2  1  0  0  0  0
  3  2  1  0  0  0  0
 16  2  1  0  0  0  0
  2 19  1  0  0  0  0
  4  3  1  0  0  0  0
  5  4  1  0  0  0  0
  5  6  1  0  0  0  0
 10  5  1  0  0  0  0
  6  7  1  0  0  0  0
 16  6  1  0  0  0  0
  7  8  1  0  0  0  0
  8  9  1  0  0  0  0
 10  9  2  0  0  0  0
  9 15  1  0  0  0  0
 11 10  1  0  0  0  0
 12 11  1  0  0  0  0
 13 12  1  0  0  0  0
 13 14  2  0  0  0  0
 15 13  1  0  0  0  0
 17 16  1  0  0  0  0
 18 17  1  0  0  0  0
 19 18  1  0  0  0  0
 19 20  1  0  0  0  0
 19 21  1  0  0  0  0
 21 22  3  0  0  0  0
M  END
> <Inchi_key>
ICTXHFFSOAJUMG-UHFFFAOYSA-N

> <Source>
Mulliner

> <ID>
HT1524

> <H_MFHB>
0

> <CAS>


> <Cholestasis>


> <Name>
norethynodrel

> <Class>
0

$$$$