
  -INDIGO-08031710012D

 12 13  0  0  0  0  0  0  0  0999 V2000
    5.6494    2.6353    0.0000 C   0  0  0  0  0  0  0  0  0  0  0  0
    4.1748    2.9104    0.0000 N   0  0  0  0  0  0  0  0  0  0  0  0
    3.1993    1.7710    0.0000 C   0  0  0  0  0  0  0  0  0  0  0  0
    4.6363    1.3407    0.0000 C   0  0  0  0  0  0  0  0  0  0  0  0
    1.8903    2.5706    0.0000 C   0  0  0  0  0  0  0  0  0  0  0  0
    0.8083    1.8413    0.0000 C   0  0  0  0  0  0  0  0  0  0  0  0
    0.1797    0.7549    0.0000 C   0  0  0  0  0  0  0  0  0  0  0  0
    1.4783    1.3822    0.0000 C   0  0  0  0  0  0  0  0  0  0  0  0
    1.6530    3.9325    0.0000 C   0  0  0  0  0  0  0  0  0  0  0  0
    2.6867    0.7346    0.0000 C   0  0  0  0  0  0  0  0  0  0  0  0
    3.8363   -0.2289    0.0000 C   0  0  0  0  0  0  0  0  0  0  0  0
    2.2414   -0.6978    0.0000 C   0  0  0  0  0  0  0  0  0  0  0  0
  1  2  1  0  0  0  0
  2  3  1  0  0  0  0
  3  4  1  0  0  0  0
  5  3  1  0  0  0  0
  3 10  1  0  0  0  0
  5  6  1  0  0  0  0
  9  5  1  0  0  0  0
  6  7  1  0  0  0  0
  7  8  1  0  0  0  0
  8  9  1  0  0  0  0
 10  8  1  0  0  0  0
 10 11  1  0  0  0  0
 10 12  1  0  0  0  0
M  END
> <Inchi_key>
IMYZQPCYWPFTAG-UHFFFAOYSA-N

> <Source>
Mulliner

> <ID>
HT1280

> <H_MFHB>
0

> <CAS>


> <Cholestasis>


> <Name>
mecamylamine

> <Class>
0

$$$$