
  -INDIGO-08031710012D

  4  3  0  0  0  0  0  0  0  0999 V2000
    1.5000    0.0000    0.0000 S   0  0  0  0  0  0  0  0  0  0  0  0
    0.7500    1.2990    0.0000 O   0  0  0  0  0  0  0  0  0  0  0  0
    3.0000    0.0000    0.0000 C   0  0  0  0  0  0  0  0  0  0  0  0
    0.7500   -1.2990    0.0000 C   0  0  0  0  0  0  0  0  0  0  0  0
  1  2  1  0  0  0  0
  1  3  1  0  0  0  0
  1  4  1  0  0  0  0
M  CHG  2   1   1   2  -1
M  END
> <Inchi_key>
IAZDPXIOMUYVGZ-UHFFFAOYSA-N

> <Source>
Mulliner

> <ID>
HT2347;HT0678

> <H_MFHB>
0

> <CAS>


> <Cholestasis>


> <Name>
dimethyl sulfoxide

> <Class>
0

$$$$