
  -INDIGO-08031710012D

 38 39  0  0  0  0  0  0  0  0999 V2000
   28.5817   -7.6585    0.0000 C   0  0  0  0  0  0  0  0  0  0  0  0
   27.2828   -6.9086    0.0000 C   0  0  0  0  0  0  0  0  0  0  0  0
   27.2828   -5.4085    0.0000 C   0  0  0  0  0  0  0  0  0  0  0  0
   25.9838   -7.6585    0.0000 C   0  0  0  0  0  0  0  0  0  0  0  0
   24.6845   -6.9086    0.0000 C   0  0  0  0  0  0  0  0  0  0  0  0
   23.3856   -7.6585    0.0000 C   0  0  0  0  0  0  0  0  0  0  0  0
   22.0867   -6.9086    0.0000 C   0  0  0  0  0  0  0  0  0  0  0  0
   22.0867   -5.4085    0.0000 C   0  0  0  0  0  0  0  0  0  0  0  0
   20.7873   -7.6585    0.0000 C   0  0  0  0  0  0  0  0  0  0  0  0
   19.4884   -6.9086    0.0000 C   0  0  0  0  0  0  0  0  0  0  0  0
   18.1895   -7.6585    0.0000 C   0  0  0  0  0  0  0  0  0  0  0  0
   16.8906   -6.9086    0.0000 C   0  0  0  0  0  0  0  0  0  0  0  0
   15.5912   -7.6585    0.0000 C   0  0  0  0  0  0  0  0  0  0  0  0
   16.8906   -5.4085    0.0000 C   0  0  0  0  0  0  0  0  0  0  0  0
   15.5912   -4.6586    0.0000 C   0  0  0  0  0  0  0  0  0  0  0  0
   15.5912   -3.1585    0.0000 C   0  0  0  0  0  0  0  0  0  0  0  0
   14.2923   -2.4084    0.0000 C   0  0  0  0  0  0  0  0  0  0  0  0
   15.5912   -1.6585    0.0000 C   0  0  0  0  0  0  0  0  0  0  0  0
   13.5422   -3.7075    0.0000 C   0  0  0  0  0  0  0  0  0  0  0  0
   12.0423   -3.7075    0.0000 C   0  0  0  0  0  0  0  0  0  0  0  0
   11.2921   -2.4084    0.0000 C   0  0  0  0  0  0  0  0  0  0  0  0
    9.7922   -2.4084    0.0000 C   0  0  0  0  0  0  0  0  0  0  0  0
    9.0425   -3.7075    0.0000 C   0  0  0  0  0  0  0  0  0  0  0  0
    9.0425   -1.1094    0.0000 C   0  0  0  0  0  0  0  0  0  0  0  0
    7.5422   -1.1094    0.0000 O   0  0  0  0  0  0  0  0  0  0  0  0
    6.7924   -2.4084    0.0000 C   0  0  0  0  0  0  0  0  0  0  0  0
    7.5422   -3.7075    0.0000 O   0  0  0  0  0  0  0  0  0  0  0  0
    5.2921   -2.4084    0.0000 C   0  0  0  0  0  0  0  0  0  0  0  0
    4.5424   -3.7075    0.0000 C   0  0  0  0  0  0  0  0  0  0  0  0
    3.0425   -3.7075    0.0000 C   0  0  0  0  0  0  0  0  0  0  0  0
    2.2923   -2.4084    0.0000 O   0  0  0  0  0  0  0  0  0  0  0  0
    2.2923   -5.0065    0.0000 O   0  0  0  0  0  0  0  0  0  0  0  0
    9.7922    0.1897    0.0000 C   0  0  0  0  0  0  0  0  0  0  0  0
    9.0425    1.4887    0.0000 C   0  0  0  0  0  0  0  0  0  0  0  0
   11.2921    0.1897    0.0000 C   0  0  0  0  0  0  0  0  0  0  0  0
   12.0423    1.4887    0.0000 C   0  0  0  0  0  0  0  0  0  0  0  0
   12.0423   -1.1094    0.0000 C   0  0  0  0  0  0  0  0  0  0  0  0
   13.5422   -1.1094    0.0000 O   0  0  0  0  0  0  0  0  0  0  0  0
  1  2  1  0  0  0  0
  2  3  1  0  0  0  0
  2  4  1  0  0  0  0
  4  5  1  0  0  0  0
  5  6  1  0  0  0  0
  6  7  1  0  0  0  0
  7  8  1  0  0  0  0
  7  9  1  0  0  0  0
  9 10  1  0  0  0  0
 10 11  1  0  0  0  0
 11 12  1  0  0  0  0
 12 13  1  0  0  0  0
 12 14  1  0  0  0  0
 14 15  1  0  0  0  0
 15 16  1  0  0  0  0
 16 17  1  0  0  0  0
 17 18  1  0  0  0  0
 19 17  1  0  0  0  0
 17 38  1  0  0  0  0
 20 19  1  0  0  0  0
 21 20  1  0  0  0  0
 22 21  1  0  0  0  0
 21 37  2  0  0  0  0
 22 23  1  0  0  0  0
 24 22  2  0  0  0  0
 24 25  1  0  0  0  0
 33 24  1  0  0  0  0
 25 26  1  0  0  0  0
 26 27  2  0  0  0  0
 26 28  1  0  0  0  0
 28 29  1  0  0  0  0
 29 30  1  0  0  0  0
 30 31  2  0  0  0  0
 30 32  1  0  0  0  0
 33 34  1  0  0  0  0
 35 33  2  0  0  0  0
 35 36  1  0  0  0  0
 37 35  1  0  0  0  0
 38 37  1  0  0  0  0
M  END
> <Inchi_key>
IELOKBJPULMYRW-UHFFFAOYSA-N

> <Source>
Mulliner

> <ID>
HT3909

> <H_MFHB>
0

> <CAS>


> <Cholestasis>


> <Name>


> <Class>
0

$$$$