
  -INDIGO-08031710012D

 29 31  0  0  0  0  0  0  0  0999 V2000
   -0.4386   -0.3226    0.0000 C   0  0  0  0  0  0  0  0  0  0  0  0
   -0.8856   -1.7545    0.0000 O   0  0  0  0  0  0  0  0  0  0  0  0
    0.1309   -2.8575    0.0000 C   0  0  0  0  0  0  0  0  0  0  0  0
    1.5660   -2.4211    0.0000 C   0  0  0  0  0  0  0  0  0  0  0  0
    2.8024   -3.2705    0.0000 C   0  0  0  0  0  0  0  0  0  0  0  0
    2.9101   -4.7665    0.0000 C   0  0  0  0  0  0  0  0  0  0  0  0
    1.8079   -5.7840    0.0000 C   0  0  0  0  0  0  0  0  0  0  0  0
    0.3248   -5.5539    0.0000 C   0  0  0  0  0  0  0  0  0  0  0  0
   -0.4210   -4.2523    0.0000 C   0  0  0  0  0  0  0  0  0  0  0  0
   -1.9171   -4.3599    0.0000 O   0  0  0  0  0  0  0  0  0  0  0  0
    1.9154   -7.2802    0.0000 C   0  0  0  0  0  0  0  0  0  0  0  0
    3.1518   -8.1294    0.0000 C   0  0  0  0  0  0  0  0  0  0  0  0
    4.5871   -7.6931    0.0000 C   0  0  0  0  0  0  0  0  0  0  0  0
    5.1383   -6.2972    0.0000 C   0  0  0  0  0  0  0  0  0  0  0  0
    6.6382   -6.3020    0.0000 C   0  0  0  0  0  0  0  0  0  0  0  0
    7.3924   -5.0053    0.0000 C   0  0  0  0  0  0  0  0  0  0  0  0
    8.8924   -5.0104    0.0000 O   0  0  0  0  0  0  0  0  0  0  0  0
    9.6382   -6.3117    0.0000 C   0  0  0  0  0  0  0  0  0  0  0  0
    6.6465   -3.7039    0.0000 C   0  0  0  0  0  0  0  0  0  0  0  0
    7.4008   -2.4073    0.0000 O   0  0  0  0  0  0  0  0  0  0  0  0
    8.9008   -2.4121    0.0000 C   0  0  0  0  0  0  0  0  0  0  0  0
    5.1466   -3.6991    0.0000 C   0  0  0  0  0  0  0  0  0  0  0  0
    4.4009   -2.3975    0.0000 O   0  0  0  0  0  0  0  0  0  0  0  0
    5.1550   -1.1010    0.0000 C   0  0  0  0  0  0  0  0  0  0  0  0
    4.3924   -4.9958    0.0000 C   0  0  0  0  0  0  0  0  0  0  0  0
    0.6140   -8.0260    0.0000 N   0  0  0  0  0  0  0  0  0  0  0  0
    0.6092   -9.5260    0.0000 C   0  0  0  0  0  0  0  0  0  0  0  0
   -0.6924  -10.2717    0.0000 O   0  0  0  0  0  0  0  0  0  0  0  0
    1.9057  -10.2802    0.0000 C   0  0  0  0  0  0  0  0  0  0  0  0
  1  2  1  0  0  0  0
  2  3  1  0  0  0  0
  4  3  2  0  0  0  0
  3  9  1  0  0  0  0
  5  4  1  0  0  0  0
  6  5  2  0  0  0  0
  6  7  1  0  0  0  0
 25  6  1  0  0  0  0
  8  7  2  0  0  0  0
  7 11  1  0  0  0  0
  9  8  1  0  0  0  0
  9 10  2  0  0  0  0
 11 12  1  0  0  0  0
 11 26  1  0  0  0  0
 12 13  1  0  0  0  0
 13 14  1  0  0  0  0
 15 14  1  0  0  0  0
 14 25  2  0  0  0  0
 16 15  2  0  0  0  0
 16 17  1  0  0  0  0
 19 16  1  0  0  0  0
 17 18  1  0  0  0  0
 19 20  1  0  0  0  0
 22 19  2  0  0  0  0
 20 21  1  0  0  0  0
 22 23  1  0  0  0  0
 25 22  1  0  0  0  0
 23 24  1  0  0  0  0
 26 27  1  0  0  0  0
 27 28  2  0  0  0  0
 27 29  1  0  0  0  0
M  END
> <Inchi_key>
IAKHMKGGTNLKSZ-UHFFFAOYSA-N

> <Source>
Mulliner

> <ID>
HT0543

> <H_MFHB>
0

> <CAS>
64-86-8

> <Cholestasis>


> <Name>
colchicine

> <Class>
0

$$$$