
  -INDIGO-08031710012D

 33 36  0  0  0  0  0  0  0  0999 V2000
    3.5025  -10.7706    0.0000 C   0  0  0  0  0  0  0  0  0  0  0  0
    4.7156   -9.8883    0.0000 C   0  0  0  0  0  0  0  0  0  0  0  0
    5.5979  -11.1014    0.0000 C   0  0  0  0  0  0  0  0  0  0  0  0
    5.9287   -9.0061    0.0000 C   0  0  0  0  0  0  0  0  0  0  0  0
    3.8334   -8.6752    0.0000 C   0  0  0  0  0  0  0  0  0  0  0  0
    2.3416   -8.8328    0.0000 C   0  0  0  0  0  0  0  0  0  0  0  0
    1.7323  -10.2034    0.0000 O   0  0  0  0  0  0  0  0  0  0  0  0
    1.4593   -7.6197    0.0000 O   0  0  0  0  0  0  0  0  0  0  0  0
   -0.0322   -7.7772    0.0000 C   0  0  0  0  0  0  0  0  0  0  0  0
   -0.9147   -6.5642    0.0000 C   0  0  0  0  0  0  0  0  0  0  0  0
   -0.3051   -5.1935    0.0000 O   0  0  0  0  0  0  0  0  0  0  0  0
   -2.4062   -6.7217    0.0000 C   0  0  0  0  0  0  0  0  0  0  0  0
   -1.8451   -5.3306    0.0000 O   0  0  0  0  0  0  0  0  0  0  0  0
   -2.3271   -8.2196    0.0000 C   0  0  0  0  0  0  0  0  0  0  0  0
   -3.7273   -8.7579    0.0000 C   0  0  0  0  0  0  0  0  0  0  0  0
   -4.6717   -7.5926    0.0000 C   0  0  0  0  0  0  0  0  0  0  0  0
   -6.1698   -7.5149    0.0000 C   0  0  0  0  0  0  0  0  0  0  0  0
   -6.9861   -8.7733    0.0000 C   0  0  0  0  0  0  0  0  0  0  0  0
   -8.4839   -8.6955    0.0000 C   0  0  0  0  0  0  0  0  0  0  0  0
   -9.1657   -7.3594    0.0000 C   0  0  0  0  0  0  0  0  0  0  0  0
  -10.6638   -7.2816    0.0000 C   0  0  0  0  0  0  0  0  0  0  0  0
  -11.3452   -5.9455    0.0000 C   0  0  0  0  0  0  0  0  0  0  0  0
  -12.8433   -5.8677    0.0000 O   0  0  0  0  0  0  0  0  0  0  0  0
  -10.5291   -4.6870    0.0000 C   0  0  0  0  0  0  0  0  0  0  0  0
   -9.0310   -4.7648    0.0000 C   0  0  0  0  0  0  0  0  0  0  0  0
   -8.3493   -6.1010    0.0000 C   0  0  0  0  0  0  0  0  0  0  0  0
   -7.5329   -4.8425    0.0000 C   0  0  0  0  0  0  0  0  0  0  0  0
   -6.8515   -6.1786    0.0000 C   0  0  0  0  0  0  0  0  0  0  0  0
   -6.0351   -4.9203    0.0000 C   0  0  0  0  0  0  0  0  0  0  0  0
   -6.7166   -3.5841    0.0000 O   0  0  0  0  0  0  0  0  0  0  0  0
   -4.5370   -4.9980    0.0000 C   0  0  0  0  0  0  0  0  0  0  0  0
   -3.8553   -6.3342    0.0000 C   0  0  0  0  0  0  0  0  0  0  0  0
   -2.9324   -5.1517    0.0000 C   0  0  0  0  0  0  0  0  0  0  0  0
  1  2  1  0  0  0  0
  2  3  1  0  0  0  0
  2  4  1  0  0  0  0
  2  5  1  0  0  0  0
  5  6  1  0  0  0  0
  6  7  2  0  0  0  0
  6  8  1  0  0  0  0
  8  9  1  0  0  0  0
  9 10  1  0  0  0  0
 10 11  2  0  0  0  0
 10 12  1  0  0  0  0
 12 13  1  0  0  0  0
 14 12  1  0  0  0  0
 12 32  1  0  0  0  0
 15 14  1  0  0  0  0
 16 15  1  0  0  0  0
 17 16  1  0  0  0  0
 16 32  1  0  0  0  0
 18 17  1  0  0  0  0
 17 28  1  0  0  0  0
 19 18  1  0  0  0  0
 20 19  1  0  0  0  0
 21 20  2  0  0  0  0
 20 26  1  0  0  0  0
 22 21  1  0  0  0  0
 22 23  2  0  0  0  0
 24 22  1  0  0  0  0
 25 24  2  0  0  0  0
 26 25  1  0  0  0  0
 26 27  1  0  0  0  0
 28 26  1  0  0  0  0
 29 28  1  0  0  0  0
 29 30  1  0  0  0  0
 31 29  1  0  0  0  0
 32 31  1  0  0  0  0
 32 33  1  0  0  0  0
M  END
> <Inchi_key>
HUMXXHTVHHLNRO-UHFFFAOYSA-N

> <Source>
Mulliner

> <ID>
HT1733

> <H_MFHB>
0

> <CAS>


> <Cholestasis>


> <Name>
prednisolone tebutate

> <Class>
0

$$$$