

  -INDIGO-08031710012D

 34 37  0  0  0  0  0  0  0  0999 V2000
    1.1473   -1.1471    0.0000 O   0  0  0  0  0  0  0  0  0  0  0  0
    1.1473    0.3529    0.0000 C   0  0  0  0  0  0  0  0  0  0  0  0
   -0.1521    1.1029    0.0000 C   0  0  0  0  0  0  0  0  0  0  0  0
   -1.4509    0.3529    0.0000 O   0  0  0  0  0  0  0  0  0  0  0  0
   -2.7502    1.1029    0.0000 C   0  0  0  0  0  0  0  0  0  0  0  0
   -2.7502    2.6029    0.0000 C   0  0  0  0  0  0  0  0  0  0  0  0
   -4.0490    3.3529    0.0000 C   0  0  0  0  0  0  0  0  0  0  0  0
   -5.3480    2.6029    0.0000 C   0  0  0  0  0  0  0  0  0  0  0  0
   -5.3480    1.1029    0.0000 C   0  0  0  0  0  0  0  0  0  0  0  0
   -6.6471    0.3529    0.0000 O   0  0  0  0  0  0  0  0  0  0  0  0
   -6.6471   -1.1471    0.0000 C   0  0  0  0  0  0  0  0  0  0  0  0
   -5.3480   -1.8971    0.0000 C   0  0  0  0  0  0  0  0  0  0  0  0
   -4.0490   -1.1471    0.0000 C   0  0  0  0  0  0  0  0  0  0  0  0
   -2.7502   -1.8971    0.0000 O   0  0  0  0  0  0  0  0  0  0  0  0
   -4.0490    0.3529    0.0000 C   0  0  0  0  0  0  0  0  0  0  0  0
   -7.9461   -1.8971    0.0000 C   0  0  0  0  0  0  0  0  0  0  0  0
   -7.9461   -3.3971    0.0000 O   0  0  0  0  0  0  0  0  0  0  0  0
   -9.2452   -1.1471    0.0000 O   0  0  0  0  0  0  0  0  0  0  0  0
    2.4460    1.1029    0.0000 C   0  0  0  0  0  0  0  0  0  0  0  0
    3.7451    0.3529    0.0000 O   0  0  0  0  0  0  0  0  0  0  0  0
    5.0441    1.1029    0.0000 C   0  0  0  0  0  0  0  0  0  0  0  0
    5.0441    2.6029    0.0000 C   0  0  0  0  0  0  0  0  0  0  0  0
    6.3432    3.3529    0.0000 C   0  0  0  0  0  0  0  0  0  0  0  0
    7.6422    2.6029    0.0000 C   0  0  0  0  0  0  0  0  0  0  0  0
    7.6422    1.1029    0.0000 C   0  0  0  0  0  0  0  0  0  0  0  0
    8.9413    0.3529    0.0000 O   0  0  0  0  0  0  0  0  0  0  0  0
    8.9413   -1.1471    0.0000 C   0  0  0  0  0  0  0  0  0  0  0  0
    7.6422   -1.8971    0.0000 C   0  0  0  0  0  0  0  0  0  0  0  0
    6.3432   -1.1471    0.0000 C   0  0  0  0  0  0  0  0  0  0  0  0
    5.0441   -1.8971    0.0000 O   0  0  0  0  0  0  0  0  0  0  0  0
    6.3432    0.3529    0.0000 C   0  0  0  0  0  0  0  0  0  0  0  0
   10.2403   -1.8971    0.0000 C   0  0  0  0  0  0  0  0  0  0  0  0
   11.5394   -1.1471    0.0000 O   0  0  0  0  0  0  0  0  0  0  0  0
   10.2403   -3.3971    0.0000 O   0  0  0  0  0  0  0  0  0  0  0  0
  1  2  1  0  0  0  0
  2  3  1  0  0  0  0
  2 19  1  0  0  0  0
  3  4  1  0  0  0  0
  4  5  1  0  0  0  0
  6  5  2  0  0  0  0
  5 15  1  0  0  0  0
  7  6  1  0  0  0  0
  8  7  2  0  0  0  0
  9  8  1  0  0  0  0
 10  9  1  0  0  0  0
  9 15  2  0  0  0  0
 11 10  1  0  0  0  0
 12 11  2  0  0  0  0
 11 16  1  0  0  0  0
 13 12  1  0  0  0  0
 13 14  2  0  0  0  0
 15 13  1  0  0  0  0
 16 17  2  0  0  0  0
 16 18  1  0  0  0  0
 19 20  1  0  0  0  0
 20 21  1  0  0  0  0
 22 21  2  0  0  0  0
 21 31  1  0  0  0  0
 23 22  1  0  0  0  0
 24 23  2  0  0  0  0
 25 24  1  0  0  0  0
 26 25  1  0  0  0  0
 25 31  2  0  0  0  0
 27 26  1  0  0  0  0
 28 27  2  0  0  0  0
 27 32  1  0  0  0  0
 29 28  1  0  0  0  0
 29 30  2  0  0  0  0
 31 29  1  0  0  0  0
 32 33  2  0  0  0  0
 32 34  1  0  0  0  0
M  END
> <Inchi_key>
IMZMKUWMOSJXDT-UHFFFAOYSA-N

> <Source>
Mulliner

> <ID>
HT0557

> <H_MFHB>
0

> <CAS>


> <Cholestasis>


> <Name>
cromolyn sodium;cromoglicic acid

> <Class>
0


$$$$