

  -INDIGO-08031710012D

 16 18  0  0  0  0  0  0  0  0999 V2000
    0.1259    0.2091    0.0000 C   0  0  0  0  0  0  0  0  0  0  0  0
    0.8279   -1.1165    0.0000 C   0  0  0  0  0  0  0  0  0  0  0  0
    2.3269   -1.1713    0.0000 N   0  0  0  0  0  0  0  0  0  0  0  0
    3.0289   -2.4969    0.0000 C   0  0  0  0  0  0  0  0  0  0  0  0
    2.5133   -3.9415    0.0000 C   0  0  0  0  0  0  0  0  0  0  0  0
    3.4479   -4.8519    0.0000 C   0  0  0  0  0  0  0  0  0  0  0  0
    4.6397   -5.2456    0.0000 C   0  0  0  0  0  0  0  0  0  0  0  0
    3.7608   -4.1023    0.0000 C   0  0  0  0  0  0  0  0  0  0  0  0
    1.2285   -4.4517    0.0000 C   0  0  0  0  0  0  0  0  0  0  0  0
    4.1481   -2.7872    0.0000 C   0  0  0  0  0  0  0  0  0  0  0  0
    5.4535   -2.0485    0.0000 C   0  0  0  0  0  0  0  0  0  0  0  0
    6.7460   -2.8096    0.0000 C   0  0  0  0  0  0  0  0  0  0  0  0
    8.0516   -2.0709    0.0000 C   0  0  0  0  0  0  0  0  0  0  0  0
    8.0644   -0.5709    0.0000 C   0  0  0  0  0  0  0  0  0  0  0  0
    6.7719    0.1903    0.0000 C   0  0  0  0  0  0  0  0  0  0  0  0
    5.4664   -0.5485    0.0000 C   0  0  0  0  0  0  0  0  0  0  0  0
  1  2  1  0  0  0  0
  2  3  1  0  0  0  0
  3  4  1  0  0  0  0
  5  4  1  0  0  0  0
  4 10  1  0  0  0  0
  5  6  1  0  0  0  0
  9  5  1  0  0  0  0
  6  7  1  0  0  0  0
  7  8  1  0  0  0  0
  8  9  1  0  0  0  0
 10  8  1  0  0  0  0
 10 11  1  0  0  0  0
 12 11  2  0  0  0  0
 11 16  1  0  0  0  0
 13 12  1  0  0  0  0
 14 13  2  0  0  0  0
 15 14  1  0  0  0  0
 16 15  2  0  0  0  0
M  END
> <Inchi_key>
IKFBPFGUINLYQI-UHFFFAOYSA-N

> <Source>
Mulliner

> <ID>
HT0855

> <H_MFHB>
0

> <CAS>


> <Cholestasis>


> <Name>
fencamfamine

> <Class>
0


$$$$