
  -INDIGO-08031710012D

 22 24  0  0  0  0  0  0  0  0999 V2000
    2.0759   -2.7667    0.0000 O   0  0  0  0  0  0  0  0  0  0  0  0
    1.3260   -1.4677    0.0000 C   0  0  0  0  0  0  0  0  0  0  0  0
    2.6251   -0.7177    0.0000 C   0  0  0  0  0  0  0  0  0  0  0  0
    3.9240   -1.4677    0.0000 C   0  0  0  0  0  0  0  0  0  0  0  0
    5.2231   -0.7177    0.0000 N   0  0  0  0  0  0  0  0  0  0  0  0
    5.2231    0.7823    0.0000 C   0  0  0  0  0  0  0  0  0  0  0  0
    6.5221    1.5323    0.0000 C   0  0  0  0  0  0  0  0  0  0  0  0
    7.8212    0.7823    0.0000 C   0  0  0  0  0  0  0  0  0  0  0  0
    7.8212   -0.7177    0.0000 C   0  0  0  0  0  0  0  0  0  0  0  0
    6.5221   -1.4677    0.0000 C   0  0  0  0  0  0  0  0  0  0  0  0
    0.5759   -0.1687    0.0000 C   0  0  0  0  0  0  0  0  0  0  0  0
   -0.9241   -0.1687    0.0000 C   0  0  0  0  0  0  0  0  0  0  0  0
   -1.6740    1.1304    0.0000 C   0  0  0  0  0  0  0  0  0  0  0  0
   -0.9241    2.4294    0.0000 C   0  0  0  0  0  0  0  0  0  0  0  0
    0.5759    2.4294    0.0000 C   0  0  0  0  0  0  0  0  0  0  0  0
    1.3260    1.1304    0.0000 C   0  0  0  0  0  0  0  0  0  0  0  0
    0.0269   -2.2177    0.0000 C   0  0  0  0  0  0  0  0  0  0  0  0
    0.0269   -3.7177    0.0000 C   0  0  0  0  0  0  0  0  0  0  0  0
   -1.2721   -4.4677    0.0000 C   0  0  0  0  0  0  0  0  0  0  0  0
   -2.5712   -3.7177    0.0000 C   0  0  0  0  0  0  0  0  0  0  0  0
   -2.5712   -2.2177    0.0000 C   0  0  0  0  0  0  0  0  0  0  0  0
   -1.2721   -1.4677    0.0000 C   0  0  0  0  0  0  0  0  0  0  0  0
  1  2  1  0  0  0  0
  2  3  1  0  0  0  0
  2 11  1  0  0  0  0
  2 17  1  0  0  0  0
  3  4  1  0  0  0  0
  4  5  1  0  0  0  0
  6  5  1  0  0  0  0
  5 10  1  0  0  0  0
  7  6  1  0  0  0  0
  8  7  1  0  0  0  0
  9  8  1  0  0  0  0
 10  9  1  0  0  0  0
 12 11  1  0  0  0  0
 11 16  1  0  0  0  0
 13 12  1  0  0  0  0
 14 13  1  0  0  0  0
 15 14  1  0  0  0  0
 16 15  1  0  0  0  0
 18 17  2  0  0  0  0
 17 22  1  0  0  0  0
 19 18  1  0  0  0  0
 20 19  2  0  0  0  0
 21 20  1  0  0  0  0
 22 21  2  0  0  0  0
M  END
> <Inchi_key>
HWHLPVGTWGOCJO-UHFFFAOYSA-N

> <Source>
Mulliner , Kotsampasakou

> <ID>
EK0550;HT2121

> <H_MFHB>
0

> <CAS>


> <Cholestasis>
0

> <Name>
trihexyphenidyl hydrochloride;trihexyphenidyl

> <Class>
0

$$$$