

  -INDIGO-08031710012D

 43 48  0  0  0  0  0  0  0  0999 V2000
   -1.8274   10.9768    0.0000 C   0  0  0  0  0  0  0  0  0  0  0  0
   -2.1422    9.5100    0.0000 C   0  0  0  0  0  0  0  0  0  0  0  0
   -1.0291    8.5044    0.0000 C   0  0  0  0  0  0  0  0  0  0  0  0
    0.3981    8.9652    0.0000 O   0  0  0  0  0  0  0  0  0  0  0  0
   -1.3439    7.0376    0.0000 O   0  0  0  0  0  0  0  0  0  0  0  0
   -0.2309    6.0319    0.0000 C   0  0  0  0  0  0  0  0  0  0  0  0
   -0.3905    4.5404    0.0000 C   0  0  0  0  0  0  0  0  0  0  0  0
    0.9786    3.9278    0.0000 C   0  0  0  0  0  0  0  0  0  0  0  0
    1.9845    5.0406    0.0000 C   0  0  0  0  0  0  0  0  0  0  0  0
    3.4844    5.0379    0.0000 C   0  0  0  0  0  0  0  0  0  0  0  0
    4.2321    3.7374    0.0000 C   0  0  0  0  0  0  0  0  0  0  0  0
    5.7322    3.7346    0.0000 C   0  0  0  0  0  0  0  0  0  0  0  0
    6.4844    5.0324    0.0000 C   0  0  0  0  0  0  0  0  0  0  0  0
    7.9845    5.0296    0.0000 C   0  0  0  0  0  0  0  0  0  0  0  0
    8.7367    6.3271    0.0000 C   0  0  0  0  0  0  0  0  0  0  0  0
   10.2368    6.3245    0.0000 O   0  0  0  0  0  0  0  0  0  0  0  0
   10.9845    5.0240    0.0000 C   0  0  0  0  0  0  0  0  0  0  0  0
   10.2321    3.7265    0.0000 O   0  0  0  0  0  0  0  0  0  0  0  0
   12.4844    5.0212    0.0000 C   0  0  0  0  0  0  0  0  0  0  0  0
    7.9892    7.6276    0.0000 C   0  0  0  0  0  0  0  0  0  0  0  0
    6.4891    7.6304    0.0000 C   0  0  0  0  0  0  0  0  0  0  0  0
    5.7369    6.3329    0.0000 C   0  0  0  0  0  0  0  0  0  0  0  0
    4.9892    7.6332    0.0000 C   0  0  0  0  0  0  0  0  0  0  0  0
    4.2368    6.3355    0.0000 C   0  0  0  0  0  0  0  0  0  0  0  0
    3.4893    7.6358    0.0000 C   0  0  0  0  0  0  0  0  0  0  0  0
    1.9892    7.6388    0.0000 C   0  0  0  0  0  0  0  0  0  0  0  0
    1.2368    6.3411    0.0000 C   0  0  0  0  0  0  0  0  0  0  0  0
    0.3787    7.5714    0.0000 C   0  0  0  0  0  0  0  0  0  0  0  0
    8.7417    8.9253    0.0000 N   0  0  0  0  0  0  0  0  0  0  0  0
   10.2415    8.9226    0.0000 C   0  0  0  0  0  0  0  0  0  0  0  0
   10.9940   10.2203    0.0000 C   0  0  0  0  0  0  0  0  0  0  0  0
   10.2465   11.5206    0.0000 C   0  0  0  0  0  0  0  0  0  0  0  0
    8.7464   11.5234    0.0000 C   0  0  0  0  0  0  0  0  0  0  0  0
    7.9940   10.2257    0.0000 C   0  0  0  0  0  0  0  0  0  0  0  0
   -1.6909    3.7928    0.0000 N   0  0  0  0  0  0  0  0  0  0  0  0
   -0.3931    3.0404    0.0000 C   0  0  0  0  0  0  0  0  0  0  0  0
   -0.3960    1.5404    0.0000 C   0  0  0  0  0  0  0  0  0  0  0  0
    0.9016    0.7880    0.0000 C   0  0  0  0  0  0  0  0  0  0  0  0
   -2.4433    2.4952    0.0000 C   0  0  0  0  0  0  0  0  0  0  0  0
   -3.9432    2.4979    0.0000 C   0  0  0  0  0  0  0  0  0  0  0  0
   -4.6909    3.7984    0.0000 C   0  0  0  0  0  0  0  0  0  0  0  0
   -3.9385    5.0959    0.0000 C   0  0  0  0  0  0  0  0  0  0  0  0
   -2.4386    5.0931    0.0000 C   0  0  0  0  0  0  0  0  0  0  0  0
  1  2  1  0  0  0  0
  2  3  1  0  0  0  0
  3  4  2  0  0  0  0
  3  5  1  0  0  0  0
  5  6  1  0  0  0  0
  7  6  1  0  0  0  0
  6 27  1  0  0  0  0
  8  7  1  0  0  0  0
  7 35  1  0  0  0  0
  9  8  1  0  0  0  0
 10  9  1  0  0  0  0
  9 27  1  0  0  0  0
 11 10  1  0  0  0  0
 10 24  1  0  0  0  0
 12 11  1  0  0  0  0
 13 12  1  0  0  0  0
 14 13  1  0  0  0  0
 13 22  1  0  0  0  0
 15 14  1  0  0  0  0
 15 16  1  0  0  0  0
 20 15  1  0  0  0  0
 16 17  1  0  0  0  0
 17 18  2  0  0  0  0
 17 19  1  0  0  0  0
 21 20  1  0  0  0  0
 20 29  1  0  0  0  0
 22 21  1  0  0  0  0
 22 23  1  0  0  0  0
 24 22  1  0  0  0  0
 25 24  1  0  0  0  0
 26 25  1  0  0  0  0
 27 26  1  0  0  0  0
 27 28  1  0  0  0  0
 30 29  1  0  0  0  0
 29 34  1  0  0  0  0
 31 30  1  0  0  0  0
 32 31  1  0  0  0  0
 33 32  1  0  0  0  0
 34 33  1  0  0  0  0
 35 36  1  0  0  0  0
 39 35  1  0  0  0  0
 35 43  1  0  0  0  0
 36 37  1  0  0  0  0
 37 38  2  0  0  0  0
 40 39  1  0  0  0  0
 41 40  1  0  0  0  0
 42 41  1  0  0  0  0
 43 42  1  0  0  0  0
M  CHG  1  35   1
M  END
> <Inchi_key>
HTIKWNNIPGXLGM-UHFFFAOYSA-N

> <Source>
Mulliner

> <ID>
HT1802

> <H_MFHB>
0

> <CAS>


> <Cholestasis>


> <Name>
rapacuronium bromide;rapacuronium

> <Class>
0


$$$$