

  -INDIGO-08031710012D

 14 15  0  0  0  0  0  0  0  0999 V2000
    0.5357   -0.9279    0.0000 C   0  0  0  0  0  0  0  0  0  0  0  0
    1.2856    0.3712    0.0000 C   0  0  0  0  0  0  0  0  0  0  0  0
    2.7858    0.3712    0.0000 C   0  0  0  0  0  0  0  0  0  0  0  0
    3.5357    1.6702    0.0000 N   0  0  0  0  0  0  0  0  0  0  0  0
    2.7858    2.9692    0.0000 C   0  0  0  0  0  0  0  0  0  0  0  0
    3.5357    4.2683    0.0000 O   0  0  0  0  0  0  0  0  0  0  0  0
    1.2856    2.9692    0.0000 C   0  0  0  0  0  0  0  0  0  0  0  0
    0.5357    1.6702    0.0000 C   0  0  0  0  0  0  0  0  0  0  0  0
    5.0357    1.6702    0.0000 C   0  0  0  0  0  0  0  0  0  0  0  0
    5.7858    0.3712    0.0000 C   0  0  0  0  0  0  0  0  0  0  0  0
    7.2858    0.3712    0.0000 C   0  0  0  0  0  0  0  0  0  0  0  0
    8.0357    1.6702    0.0000 C   0  0  0  0  0  0  0  0  0  0  0  0
    7.2858    2.9692    0.0000 C   0  0  0  0  0  0  0  0  0  0  0  0
    5.7858    2.9692    0.0000 C   0  0  0  0  0  0  0  0  0  0  0  0
  1  2  1  0  0  0  0
  3  2  2  0  0  0  0
  2  8  1  0  0  0  0
  4  3  1  0  0  0  0
  5  4  1  0  0  0  0
  4  9  1  0  0  0  0
  5  6  2  0  0  0  0
  7  5  1  0  0  0  0
  8  7  2  0  0  0  0
 10  9  2  0  0  0  0
  9 14  1  0  0  0  0
 11 10  1  0  0  0  0
 12 11  2  0  0  0  0
 13 12  1  0  0  0  0
 14 13  2  0  0  0  0
M  END
> <Inchi_key>
ISWRGOKTTBVCFA-UHFFFAOYSA-N

> <Source>
Mulliner

> <ID>
HT1692

> <H_MFHB>
0

> <CAS>
53179-13-8

> <Cholestasis>


> <Name>
pirfenidone

> <Class>
0


$$$$