

  -INDIGO-08031710012D

 19 20  0  0  0  0  0  0  0  0999 V2000
    2.3279    2.3327    0.0000 C   0  0  0  0  0  0  0  0  0  0  0  0
    2.3309    0.8327    0.0000 C   0  0  0  0  0  0  0  0  0  0  0  0
    3.6315    0.0853    0.0000 N   0  0  0  0  0  0  0  0  0  0  0  0
    3.6347   -1.4145    0.0000 C   0  0  0  0  0  0  0  0  0  0  0  0
    2.3373   -2.1673    0.0000 C   0  0  0  0  0  0  0  0  0  0  0  0
    2.3403   -3.6673    0.0000 C   0  0  0  0  0  0  0  0  0  0  0  0
    1.0429   -4.4200    0.0000 C   0  0  0  0  0  0  0  0  0  0  0  0
    3.6409   -4.4145    0.0000 S   0  0  0  0  0  0  0  0  0  0  0  0
    4.3652   -5.7282    0.0000 O   0  0  0  0  0  0  0  0  0  0  0  0
    2.8767   -5.7053    0.0000 O   0  0  0  0  0  0  0  0  0  0  0  0
    4.9383   -3.6619    0.0000 C   0  0  0  0  0  0  0  0  0  0  0  0
    6.3660   -4.1224    0.0000 S   0  0  0  0  0  0  0  0  0  0  0  0
    7.2451   -2.9070    0.0000 C   0  0  0  0  0  0  0  0  0  0  0  0
    6.3609   -1.6954    0.0000 C   0  0  0  0  0  0  0  0  0  0  0  0
    4.9352   -2.1619    0.0000 C   0  0  0  0  0  0  0  0  0  0  0  0
    8.7452   -2.9038    0.0000 S   0  0  0  0  0  0  0  0  0  0  0  0
    8.7483   -4.4038    0.0000 O   0  0  0  0  0  0  0  0  0  0  0  0
    8.7419   -1.4040    0.0000 O   0  0  0  0  0  0  0  0  0  0  0  0
   10.2451   -2.9008    0.0000 N   0  0  0  0  0  0  0  0  0  0  0  0
  1  2  1  0  0  0  0
  2  3  1  0  0  0  0
  3  4  1  0  0  0  0
  5  4  1  0  0  0  0
  4 15  1  0  0  0  0
  6  5  1  0  0  0  0
  6  7  1  0  0  0  0
  8  6  1  0  0  0  0
  8  9  2  0  0  0  0
  8 10  2  0  0  0  0
 11  8  1  0  0  0  0
 12 11  1  0  0  0  0
 11 15  2  0  0  0  0
 13 12  1  0  0  0  0
 14 13  2  0  0  0  0
 13 16  1  0  0  0  0
 15 14  1  0  0  0  0
 16 17  2  0  0  0  0
 16 18  2  0  0  0  0
 16 19  1  0  0  0  0
M  END
> <Inchi_key>
IAVUPMFITXYVAF-UHFFFAOYSA-N

> <Source>
Mulliner , Kotsampasakou

> <ID>
EK0175;HT0711

> <H_MFHB>
0

> <CAS>


> <Cholestasis>
0

> <Name>
dorzolamide hydrochloride;dorzolamide

> <Class>
0


$$$$