

  -INDIGO-08031710012D

 28 28  0  0  0  0  0  0  0  0999 V2000
    2.1427    3.7115    0.0000 C   0  0  0  0  0  0  0  0  0  0  0  0
    2.8929    2.4125    0.0000 C   0  0  0  0  0  0  0  0  0  0  0  0
    2.1427    1.1135    0.0000 O   0  0  0  0  0  0  0  0  0  0  0  0
    4.3929    2.4125    0.0000 C   0  0  0  0  0  0  0  0  0  0  0  0
    5.1429    1.1135    0.0000 N   0  0  0  0  0  0  0  0  0  0  0  0
    4.3929   -0.1856    0.0000 C   0  0  0  0  0  0  0  0  0  0  0  0
    5.1429   -1.4846    0.0000 C   0  0  0  0  0  0  0  0  0  0  0  0
    4.3929   -2.7838    0.0000 N   0  0  0  0  0  0  0  0  0  0  0  0
    2.8929   -2.7838    0.0000 C   0  0  0  0  0  0  0  0  0  0  0  0
    2.1429   -4.0826    0.0000 C   0  0  0  0  0  0  0  0  0  0  0  0
    0.6429   -4.0826    0.0000 O   0  0  0  0  0  0  0  0  0  0  0  0
    2.8929   -5.3818    0.0000 O   0  0  0  0  0  0  0  0  0  0  0  0
    5.1429   -4.0826    0.0000 C   0  0  0  0  0  0  0  0  0  0  0  0
    6.6428   -4.0826    0.0000 C   0  0  0  0  0  0  0  0  0  0  0  0
    7.3928   -2.7836    0.0000 N   0  0  0  0  0  0  0  0  0  0  0  0
    8.1428   -4.0826    0.0000 C   0  0  0  0  0  0  0  0  0  0  0  0
    9.6428   -4.0826    0.0000 C   0  0  0  0  0  0  0  0  0  0  0  0
   10.3930   -5.3817    0.0000 O   0  0  0  0  0  0  0  0  0  0  0  0
   10.3930   -2.7836    0.0000 O   0  0  0  0  0  0  0  0  0  0  0  0
    8.8928   -2.7836    0.0000 C   0  0  0  0  0  0  0  0  0  0  0  0
    9.6428   -1.4846    0.0000 C   0  0  0  0  0  0  0  0  0  0  0  0
    8.8928   -0.1856    0.0000 N   0  0  0  0  0  0  0  0  0  0  0  0
    9.6428    1.1135    0.0000 C   0  0  0  0  0  0  0  0  0  0  0  0
   11.1428    1.1135    0.0000 C   0  0  0  0  0  0  0  0  0  0  0  0
   11.8928   -0.1856    0.0000 O   0  0  0  0  0  0  0  0  0  0  0  0
   11.8928    2.4125    0.0000 O   0  0  0  0  0  0  0  0  0  0  0  0
    7.3928   -0.1856    0.0000 C   0  0  0  0  0  0  0  0  0  0  0  0
    6.6428    1.1135    0.0000 C   0  0  0  0  0  0  0  0  0  0  0  0
  1  2  1  0  0  0  0
  2  3  1  0  0  0  0
  2  4  1  0  0  0  0
  4  5  1  0  0  0  0
  6  5  1  0  0  0  0
  5 28  1  0  0  0  0
  7  6  1  0  0  0  0
  8  7  1  0  0  0  0
  8  9  1  0  0  0  0
 13  8  1  0  0  0  0
  9 10  1  0  0  0  0
 10 11  2  0  0  0  0
 10 12  1  0  0  0  0
 14 13  1  0  0  0  0
 15 14  1  0  0  0  0
 15 16  1  0  0  0  0
 20 15  1  0  0  0  0
 16 17  1  0  0  0  0
 17 18  2  0  0  0  0
 17 19  1  0  0  0  0
 21 20  1  0  0  0  0
 22 21  1  0  0  0  0
 22 23  1  0  0  0  0
 27 22  1  0  0  0  0
 23 24  1  0  0  0  0
 24 25  2  0  0  0  0
 24 26  1  0  0  0  0
 28 27  1  0  0  0  0
M  END
> <Inchi_key>
IQUHNCOJRJBMSU-UHFFFAOYSA-N

> <Source>
Mulliner

> <ID>
HT0956

> <H_MFHB>
0

> <CAS>


> <Cholestasis>


> <Name>
gadoteridol

> <Class>
0


$$$$