
  -INDIGO-08031709442D

 17 18  0  0  0  0  0  0  0  0999 V2000
    3.3242    2.0491    0.0000 O   0  0  0  0  0  0  0  0  0  0  0  0
    4.7477    1.5766    0.0000 C   0  0  0  0  0  0  0  0  0  0  0  0
    5.9668    2.4506    0.0000 C   0  0  0  0  0  0  0  0  0  0  0  0
    5.8195    3.9433    0.0000 O   0  0  0  0  0  0  0  0  0  0  0  0
    4.7384    0.0766    0.0000 C   0  0  0  0  0  0  0  0  0  0  0  0
    5.9461   -0.8127    0.0000 O   0  0  0  0  0  0  0  0  0  0  0  0
    3.3087   -0.3779    0.0000 C   0  0  0  0  0  0  0  0  0  0  0  0
    2.4348    0.8412    0.0000 C   0  0  0  0  0  0  0  0  0  0  0  0
    0.9348    0.8506    0.0000 N   0  0  0  0  0  0  0  0  0  0  0  0
    0.1930    2.1544    0.0000 C   0  0  0  0  0  0  0  0  0  0  0  0
   -1.3069    2.1638    0.0000 C   0  0  0  0  0  0  0  0  0  0  0  0
   -2.0487    3.4676    0.0000 C   0  0  0  0  0  0  0  0  0  0  0  0
   -2.0651    0.8695    0.0000 C   0  0  0  0  0  0  0  0  0  0  0  0
   -3.5651    0.8790    0.0000 O   0  0  0  0  0  0  0  0  0  0  0  0
   -1.3233   -0.4342    0.0000 N   0  0  0  0  0  0  0  0  0  0  0  0
    0.1767   -0.4437    0.0000 C   0  0  0  0  0  0  0  0  0  0  0  0
    0.9185   -1.7474    0.0000 O   0  0  0  0  0  0  0  0  0  0  0  0
  2  1  1  0  0  0  0
  1  8  1  0  0  0  0
  2  3  1  0  0  0  0
  5  2  1  0  0  0  0
  3  4  1  0  0  0  0
  5  6  1  0  0  0  0
  7  5  1  0  0  0  0
  8  7  1  0  0  0  0
  8  9  1  0  0  0  0
 10  9  1  0  0  0  0
  9 16  1  0  0  0  0
 11 10  2  0  0  0  0
 11 12  1  0  0  0  0
 13 11  1  0  0  0  0
 13 14  2  0  0  0  0
 15 13  1  0  0  0  0
 16 15  1  0  0  0  0
 16 17  2  0  0  0  0
M  END
> <Inchi_key>
IQFYYKKMVGJFEH-UHFFFAOYSA-N

> <Source>
Kotsampasakou

> <ID>
EK0504

> <H_MFHB>


> <CAS>


> <Cholestasis>
0

> <Name>
telbivudine

> <Class>
0

$$$$