

  -INDIGO-08031710012D

  8  8  0  0  0  0  0  0  0  0999 V2000
    5.3438   -0.8119    0.0000 C   0  0  0  0  0  0  0  0  0  0  0  0
    4.5938   -2.1109    0.0000 C   0  0  0  0  0  0  0  0  0  0  0  0
    3.0938   -2.1109    0.0000 N   0  0  0  0  0  0  0  0  0  0  0  0
    2.3437   -0.8119    0.0000 C   0  0  0  0  0  0  0  0  0  0  0  0
    0.8437   -0.8119    0.0000 C   0  0  0  0  0  0  0  0  0  0  0  0
    0.0938   -2.1109    0.0000 O   0  0  0  0  0  0  0  0  0  0  0  0
    0.8437   -3.4100    0.0000 C   0  0  0  0  0  0  0  0  0  0  0  0
    2.3437   -3.4100    0.0000 C   0  0  0  0  0  0  0  0  0  0  0  0
  1  2  1  0  0  0  0
  2  3  1  0  0  0  0
  4  3  1  0  0  0  0
  3  8  1  0  0  0  0
  5  4  1  0  0  0  0
  6  5  1  0  0  0  0
  7  6  1  0  0  0  0
  8  7  1  0  0  0  0
M  END
> <Inchi_key>
HVCNXQOWACZAFN-UHFFFAOYSA-N

> <Source>
Mulliner

> <ID>
HT2471

> <H_MFHB>
0

> <CAS>


> <Cholestasis>


> <Name>


> <Class>
0


$$$$