

  -INDIGO-08031710012D

 30 31  0  0  0  0  0  0  0  0999 V2000
   24.6807   -7.6902    0.0000 C   0  0  0  0  0  0  0  0  0  0  0  0
   23.1921   -7.8744    0.0000 C   0  0  0  0  0  0  0  0  0  0  0  0
   22.2882   -6.6775    0.0000 N   0  0  0  0  0  0  0  0  0  0  0  0
   20.7996   -6.8618    0.0000 C   0  0  0  0  0  0  0  0  0  0  0  0
   20.2149   -8.2431    0.0000 O   0  0  0  0  0  0  0  0  0  0  0  0
   19.8957   -5.6648    0.0000 C   0  0  0  0  0  0  0  0  0  0  0  0
   18.4070   -5.8491    0.0000 C   0  0  0  0  0  0  0  0  0  0  0  0
   17.5028   -4.6521    0.0000 C   0  0  0  0  0  0  0  0  0  0  0  0
   16.0142   -4.8365    0.0000 C   0  0  0  0  0  0  0  0  0  0  0  0
   15.1103   -3.6395    0.0000 C   0  0  0  0  0  0  0  0  0  0  0  0
   13.6217   -3.8238    0.0000 C   0  0  0  0  0  0  0  0  0  0  0  0
   12.7177   -2.6268    0.0000 C   0  0  0  0  0  0  0  0  0  0  0  0
   13.1549   -1.1918    0.0000 C   0  0  0  0  0  0  0  0  0  0  0  0
   14.5725   -0.7022    0.0000 O   0  0  0  0  0  0  0  0  0  0  0  0
   11.9252   -0.3328    0.0000 C   0  0  0  0  0  0  0  0  0  0  0  0
   10.7282   -1.2367    0.0000 C   0  0  0  0  0  0  0  0  0  0  0  0
    9.2393   -1.0555    0.0000 O   0  0  0  0  0  0  0  0  0  0  0  0
   11.2181   -2.6547    0.0000 C   0  0  0  0  0  0  0  0  0  0  0  0
   10.3590   -3.8843    0.0000 C   0  0  0  0  0  0  0  0  0  0  0  0
    8.8818   -4.1462    0.0000 C   0  0  0  0  0  0  0  0  0  0  0  0
    7.6524   -3.2871    0.0000 C   0  0  0  0  0  0  0  0  0  0  0  0
    7.7813   -1.7927    0.0000 O   0  0  0  0  0  0  0  0  0  0  0  0
    6.2934   -3.9225    0.0000 C   0  0  0  0  0  0  0  0  0  0  0  0
    6.1642   -5.4169    0.0000 C   0  0  0  0  0  0  0  0  0  0  0  0
    4.8055   -6.0522    0.0000 C   0  0  0  0  0  0  0  0  0  0  0  0
    3.5758   -5.1930    0.0000 C   0  0  0  0  0  0  0  0  0  0  0  0
    2.2172   -5.8285    0.0000 C   0  0  0  0  0  0  0  0  0  0  0  0
    2.0879   -7.3229    0.0000 C   0  0  0  0  0  0  0  0  0  0  0  0
    3.3176   -8.1820    0.0000 C   0  0  0  0  0  0  0  0  0  0  0  0
    4.6762   -7.5466    0.0000 C   0  0  0  0  0  0  0  0  0  0  0  0
  1  2  1  0  0  0  0
  2  3  1  0  0  0  0
  3  4  1  0  0  0  0
  4  5  2  0  0  0  0
  4  6  1  0  0  0  0
  6  7  1  0  0  0  0
  7  8  1  0  0  0  0
  8  9  1  0  0  0  0
  9 10  2  0  0  0  0
 10 11  1  0  0  0  0
 11 12  1  0  0  0  0
 13 12  1  0  0  0  0
 12 18  1  0  0  0  0
 13 14  1  0  0  0  0
 15 13  1  0  0  0  0
 16 15  1  0  0  0  0
 16 17  1  0  0  0  0
 18 16  1  0  0  0  0
 18 19  1  0  0  0  0
 19 20  2  0  0  0  0
 20 21  1  0  0  0  0
 21 22  1  0  0  0  0
 21 23  1  0  0  0  0
 23 24  1  0  0  0  0
 24 25  1  0  0  0  0
 26 25  2  0  0  0  0
 25 30  1  0  0  0  0
 27 26  1  0  0  0  0
 28 27  2  0  0  0  0
 29 28  1  0  0  0  0
 30 29  2  0  0  0  0
M  END
> <Inchi_key>
AQOKCDNYWBIDND-IFGFCAIGSA-N, AQOKCDNYWBIDND-SDNVCGEPSA-N

> <Source>
Mulliner,  Kotsampasakou

> <ID>
EK0064;HT0286

> <H_MFHB>
0

> <CAS>


> <Cholestasis>
0

> <Name>
bimatoprost

> <Class>
0


$$$$