

  -INDIGO-08031710012D

 30 32  0  0  0  0  0  0  0  0999 V2000
   17.3931    8.9284    0.0000 C   0  0  0  0  0  0  0  0  0  0  0  0
   16.5186    7.7096    0.0000 C   0  0  0  0  0  0  0  0  0  0  0  0
   15.0259    7.8573    0.0000 N   0  0  0  0  0  0  0  0  0  0  0  0
   14.2682    9.1518    0.0000 N   0  0  0  0  0  0  0  0  0  0  0  0
   12.8028    8.8311    0.0000 N   0  0  0  0  0  0  0  0  0  0  0  0
   12.6552    7.3383    0.0000 N   0  0  0  0  0  0  0  0  0  0  0  0
   11.3605    6.5806    0.0000 C   0  0  0  0  0  0  0  0  0  0  0  0
   10.0570    7.3228    0.0000 C   0  0  0  0  0  0  0  0  0  0  0  0
    8.7626    6.5649    0.0000 N   0  0  0  0  0  0  0  0  0  0  0  0
    8.7715    5.0650    0.0000 C   0  0  0  0  0  0  0  0  0  0  0  0
    7.4771    4.3071    0.0000 C   0  0  0  0  0  0  0  0  0  0  0  0
    6.1736    5.0493    0.0000 C   0  0  0  0  0  0  0  0  0  0  0  0
    5.4314    3.7457    0.0000 C   0  0  0  0  0  0  0  0  0  0  0  0
    6.1892    2.4512    0.0000 O   0  0  0  0  0  0  0  0  0  0  0  0
    5.4471    1.1477    0.0000 C   0  0  0  0  0  0  0  0  0  0  0  0
    6.1645    6.5494    0.0000 C   0  0  0  0  0  0  0  0  0  0  0  0
    7.4591    7.3071    0.0000 C   0  0  0  0  0  0  0  0  0  0  0  0
    4.6737    5.0403    0.0000 N   0  0  0  0  0  0  0  0  0  0  0  0
    3.9315    3.7367    0.0000 C   0  0  0  0  0  0  0  0  0  0  0  0
    4.6893    2.4422    0.0000 O   0  0  0  0  0  0  0  0  0  0  0  0
    2.4316    3.7277    0.0000 C   0  0  0  0  0  0  0  0  0  0  0  0
    1.6892    2.4241    0.0000 C   0  0  0  0  0  0  0  0  0  0  0  0
    3.9157    6.3346    0.0000 C   0  0  0  0  0  0  0  0  0  0  0  0
    2.4158    6.3257    0.0000 C   0  0  0  0  0  0  0  0  0  0  0  0
    1.6580    7.6202    0.0000 C   0  0  0  0  0  0  0  0  0  0  0  0
    2.4002    8.9237    0.0000 C   0  0  0  0  0  0  0  0  0  0  0  0
    3.9001    8.9328    0.0000 C   0  0  0  0  0  0  0  0  0  0  0  0
    4.6578    7.6383    0.0000 C   0  0  0  0  0  0  0  0  0  0  0  0
   14.0290    6.7366    0.0000 C   0  0  0  0  0  0  0  0  0  0  0  0
   14.3498    5.2713    0.0000 O   0  0  0  0  0  0  0  0  0  0  0  0
  1  2  1  0  0  0  0
  2  3  1  0  0  0  0
  4  3  1  0  0  0  0
  3 29  1  0  0  0  0
  5  4  2  0  0  0  0
  6  5  1  0  0  0  0
  6  7  1  0  0  0  0
 29  6  1  0  0  0  0
  7  8  1  0  0  0  0
  8  9  1  0  0  0  0
 10  9  1  0  0  0  0
  9 17  1  0  0  0  0
 11 10  1  0  0  0  0
 12 11  1  0  0  0  0
 12 13  1  0  0  0  0
 16 12  1  0  0  0  0
 12 18  1  0  0  0  0
 13 14  1  0  0  0  0
 14 15  1  0  0  0  0
 17 16  1  0  0  0  0
 18 19  1  0  0  0  0
 18 23  1  0  0  0  0
 19 20  2  0  0  0  0
 19 21  1  0  0  0  0
 21 22  1  0  0  0  0
 24 23  2  0  0  0  0
 23 28  1  0  0  0  0
 25 24  1  0  0  0  0
 26 25  2  0  0  0  0
 27 26  1  0  0  0  0
 28 27  2  0  0  0  0
 29 30  2  0  0  0  0
M  END
> <Inchi_key>
IDBPHNDTYPBSNI-UHFFFAOYSA-N

> <Source>
Mulliner , Kotsampasakou

> <ID>
EK0016;HT0096

> <H_MFHB>
0

> <CAS>


> <Cholestasis>
0

> <Name>
alfentanil hydrochloride;alfentanil

> <Class>
0


$$$$