

  -INDIGO-08031710012D

 37 40  0  0  0  0  0  0  0  0999 V2000
   -1.1508    5.9382    0.0000 C   0  0  0  0  0  0  0  0  0  0  0  0
    0.1483    5.1882    0.0000 O   0  0  0  0  0  0  0  0  0  0  0  0
    1.4474    5.9382    0.0000 C   0  0  0  0  0  0  0  0  0  0  0  0
    1.4474    7.4382    0.0000 C   0  0  0  0  0  0  0  0  0  0  0  0
    2.7461    8.1882    0.0000 C   0  0  0  0  0  0  0  0  0  0  0  0
    4.0452    7.4382    0.0000 C   0  0  0  0  0  0  0  0  0  0  0  0
    4.0452    5.9382    0.0000 C   0  0  0  0  0  0  0  0  0  0  0  0
    2.7461    5.1882    0.0000 C   0  0  0  0  0  0  0  0  0  0  0  0
    5.3443    5.1882    0.0000 C   0  0  0  0  0  0  0  0  0  0  0  0
    5.3443    3.6882    0.0000 O   0  0  0  0  0  0  0  0  0  0  0  0
    6.6434    5.9382    0.0000 N   0  0  0  0  0  0  0  0  0  0  0  0
    7.9425    5.1882    0.0000 C   0  0  0  0  0  0  0  0  0  0  0  0
    9.2416    5.9382    0.0000 C   0  0  0  0  0  0  0  0  0  0  0  0
   10.5404    5.1882    0.0000 C   0  0  0  0  0  0  0  0  0  0  0  0
   11.8395    5.9382    0.0000 C   0  0  0  0  0  0  0  0  0  0  0  0
   13.1386    5.1882    0.0000 C   0  0  0  0  0  0  0  0  0  0  0  0
   13.1386    3.6882    0.0000 C   0  0  0  0  0  0  0  0  0  0  0  0
   11.8395    2.9382    0.0000 C   0  0  0  0  0  0  0  0  0  0  0  0
   10.5404    3.6882    0.0000 C   0  0  0  0  0  0  0  0  0  0  0  0
   14.4377    2.9382    0.0000 S   0  0  0  0  0  0  0  0  0  0  0  0
   15.1877    4.2372    0.0000 O   0  0  0  0  0  0  0  0  0  0  0  0
   13.6877    1.6392    0.0000 O   0  0  0  0  0  0  0  0  0  0  0  0
   15.7368    2.1881    0.0000 N   0  0  0  0  0  0  0  0  0  0  0  0
   17.0359    2.9382    0.0000 C   0  0  0  0  0  0  0  0  0  0  0  0
   17.0359    4.4382    0.0000 O   0  0  0  0  0  0  0  0  0  0  0  0
   18.3350    2.1881    0.0000 N   0  0  0  0  0  0  0  0  0  0  0  0
   19.6337    2.9382    0.0000 C   0  0  0  0  0  0  0  0  0  0  0  0
   19.6337    4.4382    0.0000 C   0  0  0  0  0  0  0  0  0  0  0  0
   20.9328    5.1882    0.0000 C   0  0  0  0  0  0  0  0  0  0  0  0
   22.2319    4.4382    0.0000 C   0  0  0  0  0  0  0  0  0  0  0  0
   22.2319    2.9382    0.0000 C   0  0  0  0  0  0  0  0  0  0  0  0
   20.9328    2.1881    0.0000 C   0  0  0  0  0  0  0  0  0  0  0  0
    6.6434    7.4382    0.0000 C   0  0  0  0  0  0  0  0  0  0  0  0
    7.9425    8.1882    0.0000 O   0  0  0  0  0  0  0  0  0  0  0  0
    5.3443    8.1882    0.0000 C   0  0  0  0  0  0  0  0  0  0  0  0
    6.0943    9.4872    0.0000 C   0  0  0  0  0  0  0  0  0  0  0  0
    4.5943    9.4872    0.0000 C   0  0  0  0  0  0  0  0  0  0  0  0
  1  2  1  0  0  0  0
  2  3  1  0  0  0  0
  4  3  2  0  0  0  0
  3  8  1  0  0  0  0
  5  4  1  0  0  0  0
  6  5  2  0  0  0  0
  6  7  1  0  0  0  0
 35  6  1  0  0  0  0
  8  7  2  0  0  0  0
  7  9  1  0  0  0  0
  9 10  2  0  0  0  0
  9 11  1  0  0  0  0
 11 12  1  0  0  0  0
 11 33  1  0  0  0  0
 12 13  1  0  0  0  0
 13 14  1  0  0  0  0
 15 14  2  0  0  0  0
 14 19  1  0  0  0  0
 16 15  1  0  0  0  0
 17 16  2  0  0  0  0
 18 17  1  0  0  0  0
 17 20  1  0  0  0  0
 19 18  2  0  0  0  0
 20 21  2  0  0  0  0
 20 22  1  0  0  0  0
 20 23  2  0  0  0  0
 23 24  1  0  0  0  0
 24 25  2  0  0  0  0
 24 26  1  0  0  0  0
 26 27  1  0  0  0  0
 28 27  1  0  0  0  0
 27 32  1  0  0  0  0
 29 28  1  0  0  0  0
 30 29  1  0  0  0  0
 31 30  1  0  0  0  0
 32 31  1  0  0  0  0
 33 34  2  0  0  0  0
 33 35  1  0  0  0  0
 35 36  1  0  0  0  0
 35 37  1  0  0  0  0
M  END
> <Inchi_key>
IFBSTUATKRHFTA-UHFFFAOYSA-N

> <Source>
Mulliner

> <ID>
HT0989

> <H_MFHB>
0

> <CAS>


> <Cholestasis>


> <Name>
gliquidone

> <Class>
0


$$$$