

  -INDIGO-08031710012D

 15 15  0  0  0  0  0  0  0  0999 V2000
   12.0000    0.0000    0.0000 N   0  0  0  0  0  0  0  0  0  0  0  0
   10.5000    0.0000    0.0000 C   0  0  0  0  0  0  0  0  0  0  0  0
    9.7500   -1.2990    0.0000 N   0  0  0  0  0  0  0  0  0  0  0  0
    9.7500    1.2990    0.0000 N   0  0  0  0  0  0  0  0  0  0  0  0
    8.2500    1.2990    0.0000 C   0  0  0  0  0  0  0  0  0  0  0  0
    7.5000    2.5981    0.0000 N   0  0  0  0  0  0  0  0  0  0  0  0
    7.5000    0.0000    0.0000 N   0  0  0  0  0  0  0  0  0  0  0  0
    6.0000    0.0000    0.0000 C   0  0  0  0  0  0  0  0  0  0  0  0
    5.2500   -1.2990    0.0000 C   0  0  0  0  0  0  0  0  0  0  0  0
    3.7500   -1.2990    0.0000 C   0  0  0  0  0  0  0  0  0  0  0  0
    3.0000    0.0000    0.0000 C   0  0  0  0  0  0  0  0  0  0  0  0
    1.5000    0.0000    0.0000 C   0  0  0  0  0  0  0  0  0  0  0  0
    0.7500   -1.2990    0.0000 C   0  0  0  0  0  0  0  0  0  0  0  0
    1.5000   -2.5981    0.0000 C   0  0  0  0  0  0  0  0  0  0  0  0
    3.0000   -2.5981    0.0000 C   0  0  0  0  0  0  0  0  0  0  0  0
  1  2  1  0  0  0  0
  2  3  2  0  0  0  0
  2  4  1  0  0  0  0
  4  5  2  0  0  0  0
  5  6  1  0  0  0  0
  5  7  1  0  0  0  0
  7  8  1  0  0  0  0
  8  9  1  0  0  0  0
  9 10  1  0  0  0  0
 11 10  2  0  0  0  0
 10 15  1  0  0  0  0
 12 11  1  0  0  0  0
 13 12  2  0  0  0  0
 14 13  1  0  0  0  0
 15 14  2  0  0  0  0
M  END
> <Inchi_key>
ICFJFFQQTFMIBG-UHFFFAOYSA-N

> <Source>
Mulliner

> <ID>
HT1646

> <H_MFHB>
0

> <CAS>


> <Cholestasis>


> <Name>
phenformin

> <Class>
0


$$$$