
  -INDIGO-08031710012D

  3  3  0  0  0  0  0  0  0  0999 V2000
    0.4330    0.1160    0.0000 C   0  0  0  0  0  0  0  0  0  0  0  0
    1.1830   -1.1830    0.0000 C   0  0  0  0  0  0  0  0  0  0  0  0
   -0.3170   -1.1830    0.0000 O   0  0  0  0  0  0  0  0  0  0  0  0
  2  1  1  0  0  0  0
  1  3  1  0  0  0  0
  3  2  1  0  0  0  0
M  END
> <Inchi_key>
IAYPIBMASNFSPL-UHFFFAOYSA-N

> <Source>
Mulliner

> <ID>
HT0819

> <H_MFHB>
0

> <CAS>
75-21-8

> <Cholestasis>


> <Name>
ethyleneoxid

> <Class>
0

$$$$