
  -INDIGO-08031710012D

 16 17  0  0  0  0  0  0  0  0999 V2000
   -0.4796   -0.8249    0.0000 C   0  0  0  0  0  0  0  0  0  0  0  0
    0.2624   -2.1285    0.0000 C   0  0  0  0  0  0  0  0  0  0  0  0
   -0.4955   -3.4229    0.0000 C   0  0  0  0  0  0  0  0  0  0  0  0
    0.2465   -4.7265    0.0000 C   0  0  0  0  0  0  0  0  0  0  0  0
   -0.5114   -6.0209    0.0000 C   0  0  0  0  0  0  0  0  0  0  0  0
    1.7466   -4.7357    0.0000 C   0  0  0  0  0  0  0  0  0  0  0  0
    2.5043   -3.4413    0.0000 C   0  0  0  0  0  0  0  0  0  0  0  0
    4.0044   -3.4504    0.0000 O   0  0  0  0  0  0  0  0  0  0  0  0
    4.7623   -2.1560    0.0000 C   0  0  0  0  0  0  0  0  0  0  0  0
    6.2623   -2.1652    0.0000 C   0  0  0  0  0  0  0  0  0  0  0  0
    7.1365   -3.3841    0.0000 C   0  0  0  0  0  0  0  0  0  0  0  0
    8.5659   -2.9293    0.0000 N   0  0  0  0  0  0  0  0  0  0  0  0
    8.5752   -1.4293    0.0000 C   0  0  0  0  0  0  0  0  0  0  0  0
    9.7940   -0.5551    0.0000 O   0  0  0  0  0  0  0  0  0  0  0  0
    7.1514   -0.9571    0.0000 O   0  0  0  0  0  0  0  0  0  0  0  0
    1.7624   -2.1377    0.0000 C   0  0  0  0  0  0  0  0  0  0  0  0
  1  2  1  0  0  0  0
  3  2  2  0  0  0  0
  2 16  1  0  0  0  0
  4  3  1  0  0  0  0
  4  5  1  0  0  0  0
  6  4  2  0  0  0  0
  7  6  1  0  0  0  0
  7  8  1  0  0  0  0
 16  7  2  0  0  0  0
  8  9  1  0  0  0  0
  9 10  1  0  0  0  0
 11 10  1  0  0  0  0
 10 15  1  0  0  0  0
 12 11  1  0  0  0  0
 13 12  1  0  0  0  0
 13 14  2  0  0  0  0
 15 13  1  0  0  0  0
M  END
> <Inchi_key>
IMWZZHHPURKASS-UHFFFAOYSA-N

> <Source>
Mulliner , Kotsampasakou

> <ID>
EK0326;HT1326

> <H_MFHB>
0

> <CAS>


> <Cholestasis>
0

> <Name>
metaxalone

> <Class>
0

$$$$