
  -INDIGO-08031710012D

 18 19  0  0  0  0  0  0  0  0999 V2000
    9.9878   -1.5096    0.0000 C   0  0  0  0  0  0  0  0  0  0  0  0
    8.6888   -2.2596    0.0000 C   0  0  0  0  0  0  0  0  0  0  0  0
    8.6888   -3.7596    0.0000 C   0  0  0  0  0  0  0  0  0  0  0  0
    7.3896   -4.5096    0.0000 C   0  0  0  0  0  0  0  0  0  0  0  0
    6.0906   -3.7596    0.0000 C   0  0  0  0  0  0  0  0  0  0  0  0
    6.0906   -2.2596    0.0000 C   0  0  0  0  0  0  0  0  0  0  0  0
    4.7918   -1.5096    0.0000 N   0  0  0  0  0  0  0  0  0  0  0  0
    3.4926   -2.2596    0.0000 C   0  0  0  0  0  0  0  0  0  0  0  0
    3.4926   -3.7596    0.0000 C   0  0  0  0  0  0  0  0  0  0  0  0
    2.1936   -4.5096    0.0000 C   0  0  0  0  0  0  0  0  0  0  0  0
    0.8946   -3.7596    0.0000 C   0  0  0  0  0  0  0  0  0  0  0  0
    0.8946   -2.2596    0.0000 C   0  0  0  0  0  0  0  0  0  0  0  0
    2.1936   -1.5096    0.0000 C   0  0  0  0  0  0  0  0  0  0  0  0
    2.1936   -0.0096    0.0000 C   0  0  0  0  0  0  0  0  0  0  0  0
    3.4926    0.7404    0.0000 O   0  0  0  0  0  0  0  0  0  0  0  0
    0.8946    0.7404    0.0000 O   0  0  0  0  0  0  0  0  0  0  0  0
    7.3896   -1.5096    0.0000 C   0  0  0  0  0  0  0  0  0  0  0  0
    7.3896   -0.0096    0.0000 C   0  0  0  0  0  0  0  0  0  0  0  0
  1  2  1  0  0  0  0
  3  2  2  0  0  0  0
  2 17  1  0  0  0  0
  4  3  1  0  0  0  0
  5  4  2  0  0  0  0
  6  5  1  0  0  0  0
  6  7  1  0  0  0  0
 17  6  2  0  0  0  0
  7  8  1  0  0  0  0
  9  8  2  0  0  0  0
  8 13  1  0  0  0  0
 10  9  1  0  0  0  0
 11 10  2  0  0  0  0
 12 11  1  0  0  0  0
 13 12  2  0  0  0  0
 13 14  1  0  0  0  0
 14 15  2  0  0  0  0
 14 16  1  0  0  0  0
 17 18  1  0  0  0  0
M  END
> <Inchi_key>
HYYBABOKPJLUIN-UHFFFAOYSA-N

> <Source>
Mulliner

> <ID>
HT1288

> <H_MFHB>
0

> <CAS>
61-68-7

> <Cholestasis>


> <Name>
mefenamic acid

> <Class>
0

$$$$