

  -INDIGO-08031710012D

 39 43  0  0  0  0  0  0  0  0999 V2000
    5.4242    5.8811    0.0000 C   0  0  0  0  0  0  0  0  0  0  0  0
    5.4049    4.3813    0.0000 O   0  0  0  0  0  0  0  0  0  0  0  0
    6.6894    3.6120    0.0000 C   0  0  0  0  0  0  0  0  0  0  0  0
    7.9994    4.3462    0.0000 O   0  0  0  0  0  0  0  0  0  0  0  0
    6.6692    2.1099    0.0000 C   0  0  0  0  0  0  0  0  0  0  0  0
    7.9630    1.3477    0.0000 C   0  0  0  0  0  0  0  0  0  0  0  0
    8.7270    2.6404    0.0000 O   0  0  0  0  0  0  0  0  0  0  0  0
    9.2565    0.5881    0.0000 C   0  0  0  0  0  0  0  0  0  0  0  0
   10.5619    1.3235    0.0000 C   0  0  0  0  0  0  0  0  0  0  0  0
   11.8543    0.5617    0.0000 C   0  0  0  0  0  0  0  0  0  0  0  0
   13.1599    1.3000    0.0000 C   0  0  0  0  0  0  0  0  0  0  0  0
   12.4217    2.6057    0.0000 C   0  0  0  0  0  0  0  0  0  0  0  0
   14.4657    2.0384    0.0000 C   0  0  0  0  0  0  0  0  0  0  0  0
   13.8983   -0.0056    0.0000 O   0  0  0  0  0  0  0  0  0  0  0  0
    7.2007    0.0597    0.0000 C   0  0  0  0  0  0  0  0  0  0  0  0
    7.9465   -1.2491    0.0000 O   0  0  0  0  0  0  0  0  0  0  0  0
    5.7083    0.0532    0.0000 O   0  0  0  0  0  0  0  0  0  0  0  0
    4.9482   -1.2435    0.0000 C   0  0  0  0  0  0  0  0  0  0  0  0
    3.4504   -1.3720    0.0000 C   0  0  0  0  0  0  0  0  0  0  0  0
    2.5181   -0.1953    0.0000 C   0  0  0  0  0  0  0  0  0  0  0  0
    3.2622    1.1003    0.0000 C   0  0  0  0  0  0  0  0  0  0  0  0
    2.5058    2.4007    0.0000 C   0  0  0  0  0  0  0  0  0  0  0  0
    2.9611    3.8261    0.0000 O   0  0  0  0  0  0  0  0  0  0  0  0
    1.7450    4.7050    0.0000 C   0  0  0  0  0  0  0  0  0  0  0  0
    0.5351    3.8187    0.0000 O   0  0  0  0  0  0  0  0  0  0  0  0
    1.0060    2.3931    0.0000 C   0  0  0  0  0  0  0  0  0  0  0  0
    0.2617    1.0927    0.0000 C   0  0  0  0  0  0  0  0  0  0  0  0
    1.0154   -0.2034    0.0000 C   0  0  0  0  0  0  0  0  0  0  0  0
    0.0855   -1.3778    0.0000 C   0  0  0  0  0  0  0  0  0  0  0  0
    0.4217   -2.8401    0.0000 C   0  0  0  0  0  0  0  0  0  0  0  0
    1.7795   -3.4815    0.0000 N   0  0  0  0  0  0  0  0  0  0  0  0
    2.0000   -4.9571    0.0000 C   0  0  0  0  0  0  0  0  0  0  0  0
    3.4985   -5.2041    0.0000 C   0  0  0  0  0  0  0  0  0  0  0  0
    4.0782   -4.0195    0.0000 C   0  0  0  0  0  0  0  0  0  0  0  0
    3.1241   -2.8228    0.0000 C   0  0  0  0  0  0  0  0  0  0  0  0
    4.4758   -3.4549    0.0000 C   0  0  0  0  0  0  0  0  0  0  0  0
    5.5431   -2.6258    0.0000 C   0  0  0  0  0  0  0  0  0  0  0  0
    7.0567   -2.9162    0.0000 O   0  0  0  0  0  0  0  0  0  0  0  0
    7.4822   -4.3546    0.0000 C   0  0  0  0  0  0  0  0  0  0  0  0
  1  2  1  0  0  0  0
  2  3  1  0  0  0  0
  3  4  2  0  0  0  0
  3  5  1  0  0  0  0
  5  6  1  0  0  0  0
  6  7  1  0  0  0  0
  6  8  1  0  0  0  0
  6 15  1  0  0  0  0
  8  9  1  0  0  0  0
  9 10  1  0  0  0  0
 10 11  1  0  0  0  0
 11 12  1  0  0  0  0
 11 13  1  0  0  0  0
 11 14  1  0  0  0  0
 15 16  2  0  0  0  0
 15 17  1  0  0  0  0
 17 18  1  0  0  0  0
 19 18  1  0  0  0  0
 18 37  1  0  0  0  0
 20 19  1  0  0  0  0
 19 35  1  0  0  0  0
 21 20  1  0  0  0  0
 20 28  2  0  0  0  0
 22 21  2  0  0  0  0
 23 22  1  0  0  0  0
 22 26  1  0  0  0  0
 24 23  1  0  0  0  0
 25 24  1  0  0  0  0
 26 25  1  0  0  0  0
 27 26  2  0  0  0  0
 28 27  1  0  0  0  0
 29 28  1  0  0  0  0
 30 29  1  0  0  0  0
 31 30  1  0  0  0  0
 32 31  1  0  0  0  0
 31 35  1  0  0  0  0
 33 32  1  0  0  0  0
 34 33  1  0  0  0  0
 35 34  1  0  0  0  0
 36 35  1  0  0  0  0
 37 36  2  0  0  0  0
 37 38  1  0  0  0  0
 38 39  1  0  0  0  0
M  END
> <Inchi_key>
HYFHYPWGAURHIV-UHFFFAOYSA-N

> <Source>
Mulliner

> <ID>
HT1539

> <H_MFHB>
0

> <CAS>
26833-87-4

> <Cholestasis>


> <Name>
omacetaxine mepesuccinate;homoharringtonine

> <Class>
0


$$$$