

  -INDIGO-08031710012D

 25 26  0  0  0  0  0  0  0  0999 V2000
   -8.4540    4.8810    0.0000 C   0  0  0  0  0  0  0  0  0  0  0  0
   -9.2042    6.1800    0.0000 C   0  0  0  0  0  0  0  0  0  0  0  0
   -9.9540    7.4790    0.0000 C   0  0  0  0  0  0  0  0  0  0  0  0
   -7.9051    6.9300    0.0000 O   0  0  0  0  0  0  0  0  0  0  0  0
   -6.6061    6.1800    0.0000 C   0  0  0  0  0  0  0  0  0  0  0  0
   -6.6061    4.6800    0.0000 C   0  0  0  0  0  0  0  0  0  0  0  0
   -5.3071    3.9300    0.0000 C   0  0  0  0  0  0  0  0  0  0  0  0
   -4.0078    4.6800    0.0000 C   0  0  0  0  0  0  0  0  0  0  0  0
   -2.7088    3.9300    0.0000 C   0  0  0  0  0  0  0  0  0  0  0  0
   -1.4097    4.6800    0.0000 C   0  0  0  0  0  0  0  0  0  0  0  0
   -0.1107    3.9300    0.0000 N   0  0  0  0  0  0  0  0  0  0  0  0
    1.1883    4.6800    0.0000 C   0  0  0  0  0  0  0  0  0  0  0  0
    1.1883    6.1800    0.0000 O   0  0  0  0  0  0  0  0  0  0  0  0
    2.4873    3.9300    0.0000 C   0  0  0  0  0  0  0  0  0  0  0  0
    2.4873    2.4300    0.0000 C   0  0  0  0  0  0  0  0  0  0  0  0
    3.7864    1.6800    0.0000 C   0  0  0  0  0  0  0  0  0  0  0  0
    5.0854    2.4300    0.0000 C   0  0  0  0  0  0  0  0  0  0  0  0
    6.3844    1.6800    0.0000 Cl  0  0  0  0  0  0  0  0  0  0  0  0
    5.0854    3.9300    0.0000 C   0  0  0  0  0  0  0  0  0  0  0  0
    3.7864    4.6800    0.0000 C   0  0  0  0  0  0  0  0  0  0  0  0
   -4.0078    6.1800    0.0000 C   0  0  0  0  0  0  0  0  0  0  0  0
   -5.3071    6.9300    0.0000 C   0  0  0  0  0  0  0  0  0  0  0  0
  -10.5032    5.4300    0.0000 C   0  0  0  0  0  0  0  0  0  0  0  0
  -11.8022    6.1800    0.0000 O   0  0  0  0  0  0  0  0  0  0  0  0
  -10.5032    3.9300    0.0000 O   0  0  0  0  0  0  0  0  0  0  0  0
  1  2  1  0  0  0  0
  2  3  1  0  0  0  0
  2  4  1  0  0  0  0
  2 23  1  0  0  0  0
  4  5  1  0  0  0  0
  6  5  2  0  0  0  0
  5 22  1  0  0  0  0
  7  6  1  0  0  0  0
  8  7  2  0  0  0  0
  8  9  1  0  0  0  0
 21  8  1  0  0  0  0
  9 10  1  0  0  0  0
 10 11  1  0  0  0  0
 11 12  1  0  0  0  0
 12 13  2  0  0  0  0
 12 14  1  0  0  0  0
 15 14  2  0  0  0  0
 14 20  1  0  0  0  0
 16 15  1  0  0  0  0
 17 16  2  0  0  0  0
 17 18  1  0  0  0  0
 19 17  1  0  0  0  0
 20 19  2  0  0  0  0
 22 21  2  0  0  0  0
 23 24  2  0  0  0  0
 23 25  1  0  0  0  0
M  END
> <Inchi_key>
IIBYAHWJQTYFKB-UHFFFAOYSA-N

> <Source>
Mulliner

> <ID>
HT0281

> <H_MFHB>
0

> <CAS>
41859-67-0

> <Cholestasis>


> <Name>
bezafibrate

> <Class>
0


$$$$