
  -INDIGO-08031710012D

 35 38  0  0  0  0  0  0  0  0999 V2000
    1.1316    5.0540    0.0000 O   0  0  0  0  0  0  0  0  0  0  0  0
   -0.1676    4.3040    0.0000 C   0  0  0  0  0  0  0  0  0  0  0  0
   -0.1676    2.8041    0.0000 C   0  0  0  0  0  0  0  0  0  0  0  0
    1.1316    2.0540    0.0000 N   0  0  0  0  0  0  0  0  0  0  0  0
    2.4306    2.8041    0.0000 N   0  0  0  0  0  0  0  0  0  0  0  0
    3.7296    2.0540    0.0000 C   0  0  0  0  0  0  0  0  0  0  0  0
    3.7296    0.5540    0.0000 C   0  0  0  0  0  0  0  0  0  0  0  0
    5.0285   -0.1960    0.0000 C   0  0  0  0  0  0  0  0  0  0  0  0
    6.3278    0.5540    0.0000 C   0  0  0  0  0  0  0  0  0  0  0  0
    6.3278    2.0540    0.0000 C   0  0  0  0  0  0  0  0  0  0  0  0
    7.6267    2.8041    0.0000 C   0  0  0  0  0  0  0  0  0  0  0  0
    7.6267    4.3040    0.0000 C   0  0  0  0  0  0  0  0  0  0  0  0
    6.3278    5.0540    0.0000 C   0  0  0  0  0  0  0  0  0  0  0  0
    5.0285    4.3040    0.0000 C   0  0  0  0  0  0  0  0  0  0  0  0
    5.0285    2.8041    0.0000 C   0  0  0  0  0  0  0  0  0  0  0  0
    7.6267   -0.1960    0.0000 S   0  0  0  0  0  0  0  0  0  0  0  0
    8.3767    1.1031    0.0000 O   0  0  0  0  0  0  0  0  0  0  0  0
    6.8767   -1.4951    0.0000 O   0  0  0  0  0  0  0  0  0  0  0  0
    8.9257   -0.9461    0.0000 O   0  0  0  0  0  0  0  0  0  0  0  0
   -1.4666    2.0540    0.0000 C   0  0  0  0  0  0  0  0  0  0  0  0
   -1.4666    0.5540    0.0000 C   0  0  0  0  0  0  0  0  0  0  0  0
   -2.7655   -0.1960    0.0000 C   0  0  0  0  0  0  0  0  0  0  0  0
   -4.0645    0.5540    0.0000 C   0  0  0  0  0  0  0  0  0  0  0  0
   -4.0645    2.0540    0.0000 C   0  0  0  0  0  0  0  0  0  0  0  0
   -2.7655    2.8041    0.0000 C   0  0  0  0  0  0  0  0  0  0  0  0
   -2.7655    4.3040    0.0000 C   0  0  0  0  0  0  0  0  0  0  0  0
   -1.4666    5.0540    0.0000 C   0  0  0  0  0  0  0  0  0  0  0  0
   -1.4666    6.5541    0.0000 S   0  0  0  0  0  0  0  0  0  0  0  0
    0.0334    6.5541    0.0000 O   0  0  0  0  0  0  0  0  0  0  0  0
   -2.9665    6.5541    0.0000 O   0  0  0  0  0  0  0  0  0  0  0  0
   -1.4666    8.0540    0.0000 O   0  0  0  0  0  0  0  0  0  0  0  0
   -5.3637   -0.1960    0.0000 S   0  0  0  0  0  0  0  0  0  0  0  0
   -4.6137   -1.4951    0.0000 O   0  0  0  0  0  0  0  0  0  0  0  0
   -6.1137    1.1031    0.0000 O   0  0  0  0  0  0  0  0  0  0  0  0
   -6.6627   -0.9461    0.0000 O   0  0  0  0  0  0  0  0  0  0  0  0
  1  2  1  0  0  0  0
  3  2  2  0  0  0  0
  2 27  1  0  0  0  0
  3  4  1  0  0  0  0
 20  3  1  0  0  0  0
  4  5  2  0  0  0  0
  5  6  1  0  0  0  0
  7  6  2  0  0  0  0
  6 15  1  0  0  0  0
  8  7  1  0  0  0  0
  9  8  2  0  0  0  0
 10  9  1  0  0  0  0
  9 16  1  0  0  0  0
 11 10  1  0  0  0  0
 10 15  2  0  0  0  0
 12 11  2  0  0  0  0
 13 12  1  0  0  0  0
 14 13  2  0  0  0  0
 15 14  1  0  0  0  0
 16 17  2  0  0  0  0
 16 18  2  0  0  0  0
 16 19  1  0  0  0  0
 21 20  2  0  0  0  0
 20 25  1  0  0  0  0
 22 21  1  0  0  0  0
 23 22  2  0  0  0  0
 24 23  1  0  0  0  0
 23 32  1  0  0  0  0
 25 24  2  0  0  0  0
 26 25  1  0  0  0  0
 27 26  2  0  0  0  0
 27 28  1  0  0  0  0
 28 29  2  0  0  0  0
 28 30  2  0  0  0  0
 28 31  1  0  0  0  0
 32 33  2  0  0  0  0
 32 34  2  0  0  0  0
 32 35  1  0  0  0  0
M  END
> <Inchi_key>
IRPXADUBAQAOKL-QURGRASLSA-N

> <Source>
Mulliner

> <ID>
HT3916

> <H_MFHB>
0

> <CAS>
915-67-3

> <Cholestasis>


> <Name>


> <Class>
0

$$$$