
  -INDIGO-08031710012D

 33 37  0  0  0  0  0  0  0  0999 V2000
   -1.8810    6.2664    0.0000 O   0  0  0  0  0  0  0  0  0  0  0  0
   -2.0230    4.7732    0.0000 C   0  0  0  0  0  0  0  0  0  0  0  0
   -0.5298    4.6312    0.0000 C   0  0  0  0  0  0  0  0  0  0  0  0
    0.0938    3.2670    0.0000 O   0  0  0  0  0  0  0  0  0  0  0  0
    0.3399    5.8536    0.0000 O   0  0  0  0  0  0  0  0  0  0  0  0
    1.8331    5.7115    0.0000 C   0  0  0  0  0  0  0  0  0  0  0  0
    2.3506    4.4257    0.0000 C   0  0  0  0  0  0  0  0  0  0  0  0
    3.1315    5.6720    0.0000 N   0  0  0  0  0  0  0  0  0  0  0  0
    3.9535    4.4170    0.0000 C   0  0  0  0  0  0  0  0  0  0  0  0
    5.4511    4.5013    0.0000 C   0  0  0  0  0  0  0  0  0  0  0  0
    6.2728    3.2466    0.0000 C   0  0  0  0  0  0  0  0  0  0  0  0
    7.7706    3.3307    0.0000 O   0  0  0  0  0  0  0  0  0  0  0  0
    8.5923    2.0759    0.0000 C   0  0  0  0  0  0  0  0  0  0  0  0
    7.9164    0.7367    0.0000 C   0  0  0  0  0  0  0  0  0  0  0  0
    8.7382   -0.5181    0.0000 C   0  0  0  0  0  0  0  0  0  0  0  0
   10.2357   -0.4337    0.0000 C   0  0  0  0  0  0  0  0  0  0  0  0
   10.9116    0.9053    0.0000 C   0  0  0  0  0  0  0  0  0  0  0  0
   10.0899    2.1600    0.0000 C   0  0  0  0  0  0  0  0  0  0  0  0
    4.7396    5.9485    0.0000 C   0  0  0  0  0  0  0  0  0  0  0  0
    4.1614    7.1815    0.0000 C   0  0  0  0  0  0  0  0  0  0  0  0
    2.6166    6.9281    0.0000 C   0  0  0  0  0  0  0  0  0  0  0  0
    1.6842    8.2295    0.0000 C   0  0  0  0  0  0  0  0  0  0  0  0
    1.9090    7.0861    0.0000 C   0  0  0  0  0  0  0  0  0  0  0  0
   -2.1650    3.2799    0.0000 C   0  0  0  0  0  0  0  0  0  0  0  0
   -1.0403    2.2872    0.0000 C   0  0  0  0  0  0  0  0  0  0  0  0
   -1.6367    0.9109    0.0000 C   0  0  0  0  0  0  0  0  0  0  0  0
   -3.1299    1.0530    0.0000 C   0  0  0  0  0  0  0  0  0  0  0  0
   -3.4565    2.5170    0.0000 S   0  0  0  0  0  0  0  0  0  0  0  0
   -3.5162    4.9151    0.0000 C   0  0  0  0  0  0  0  0  0  0  0  0
   -4.5089    3.7905    0.0000 C   0  0  0  0  0  0  0  0  0  0  0  0
   -5.8852    4.3869    0.0000 C   0  0  0  0  0  0  0  0  0  0  0  0
   -5.7432    5.8803    0.0000 C   0  0  0  0  0  0  0  0  0  0  0  0
   -4.2792    6.2066    0.0000 S   0  0  0  0  0  0  0  0  0  0  0  0
  1  2  1  0  0  0  0
  2  3  1  0  0  0  0
  2 24  1  0  0  0  0
  2 29  1  0  0  0  0
  3  4  2  0  0  0  0
  3  5  1  0  0  0  0
  5  6  1  0  0  0  0
  7  6  1  0  0  0  0
  6 21  1  0  0  0  0
  8  7  1  0  0  0  0
  8  9  1  0  0  0  0
  8 19  1  0  0  0  0
 23  8  1  0  0  0  0
  9 10  1  0  0  0  0
 10 11  1  0  0  0  0
 11 12  1  0  0  0  0
 12 13  1  0  0  0  0
 14 13  2  0  0  0  0
 13 18  1  0  0  0  0
 15 14  1  0  0  0  0
 16 15  2  0  0  0  0
 17 16  1  0  0  0  0
 18 17  2  0  0  0  0
 19 20  1  0  0  0  0
 20 21  1  0  0  0  0
 21 22  1  0  0  0  0
 22 23  1  0  0  0  0
 25 24  2  0  0  0  0
 24 28  1  0  0  0  0
 26 25  1  0  0  0  0
 27 26  2  0  0  0  0
 28 27  1  0  0  0  0
 30 29  2  0  0  0  0
 29 33  1  0  0  0  0
 31 30  1  0  0  0  0
 32 31  2  0  0  0  0
 33 32  1  0  0  0  0
M  CHG  1   8   1
M  END
> <Inchi_key>
ASMXXROZKSBQIH-UHFFFAOYSA-N

> <Source>
Mulliner

> <ID>
HT0068

> <H_MFHB>
0

> <CAS>


> <Cholestasis>


> <Name>
aclidinium bromide

> <Class>
0

$$$$