

  -INDIGO-08031710012D

 14 14  0  0  0  0  0  0  0  0999 V2000
   -1.1785   -1.1786    0.0000 C   0  0  0  0  0  0  0  0  0  0  0  0
   -1.1785   -2.6786    0.0000 C   0  0  0  0  0  0  0  0  0  0  0  0
   -1.1785   -4.1786    0.0000 C   0  0  0  0  0  0  0  0  0  0  0  0
   -2.6786   -2.6786    0.0000 O   0  0  0  0  0  0  0  0  0  0  0  0
    0.3214   -2.6786    0.0000 C   0  0  0  0  0  0  0  0  0  0  0  0
    0.3214   -1.1786    0.0000 C   0  0  0  0  0  0  0  0  0  0  0  0
    0.3214   -4.1786    0.0000 O   0  0  0  0  0  0  0  0  0  0  0  0
    1.8215   -2.6786    0.0000 C   0  0  0  0  0  0  0  0  0  0  0  0
    2.5714   -3.9776    0.0000 C   0  0  0  0  0  0  0  0  0  0  0  0
    4.0714   -3.9776    0.0000 C   0  0  0  0  0  0  0  0  0  0  0  0
    4.8215   -2.6786    0.0000 C   0  0  0  0  0  0  0  0  0  0  0  0
    6.3214   -2.6786    0.0000 Cl  0  0  0  0  0  0  0  0  0  0  0  0
    4.0714   -1.3795    0.0000 C   0  0  0  0  0  0  0  0  0  0  0  0
    2.5714   -1.3795    0.0000 C   0  0  0  0  0  0  0  0  0  0  0  0
  1  2  1  0  0  0  0
  2  3  1  0  0  0  0
  2  4  1  0  0  0  0
  2  5  1  0  0  0  0
  5  6  1  0  0  0  0
  5  7  1  0  0  0  0
  5  8  1  0  0  0  0
  9  8  2  0  0  0  0
  8 14  1  0  0  0  0
 10  9  1  0  0  0  0
 11 10  2  0  0  0  0
 11 12  1  0  0  0  0
 13 11  1  0  0  0  0
 14 13  2  0  0  0  0
M  END
> <Inchi_key>
HTYIXCKSEQQCJO-UHFFFAOYSA-N

> <Source>
Mulliner

> <ID>
HT2925

> <H_MFHB>
0

> <CAS>


> <Cholestasis>


> <Name>


> <Class>
0


$$$$