

  -INDIGO-08031710012D

 26 28  0  0  0  0  0  0  0  0999 V2000
   -0.2991    7.8145    0.0000 C   0  0  0  0  0  0  0  0  0  0  0  0
   -0.2991    6.3145    0.0000 C   0  0  0  0  0  0  0  0  0  0  0  0
   -1.5981    5.5645    0.0000 C   0  0  0  0  0  0  0  0  0  0  0  0
    0.9999    5.5645    0.0000 C   0  0  0  0  0  0  0  0  0  0  0  0
    2.2990    6.3145    0.0000 C   0  0  0  0  0  0  0  0  0  0  0  0
    3.5980    5.5645    0.0000 C   0  0  0  0  0  0  0  0  0  0  0  0
    4.8970    6.3145    0.0000 C   0  0  0  0  0  0  0  0  0  0  0  0
    6.1960    5.5645    0.0000 C   0  0  0  0  0  0  0  0  0  0  0  0
    6.1960    4.0645    0.0000 C   0  0  0  0  0  0  0  0  0  0  0  0
    7.4952    3.3145    0.0000 C   0  0  0  0  0  0  0  0  0  0  0  0
    8.2452    4.6136    0.0000 C   0  0  0  0  0  0  0  0  0  0  0  0
    7.4952    1.8145    0.0000 C   0  0  0  0  0  0  0  0  0  0  0  0
    6.1960    1.0645    0.0000 C   0  0  0  0  0  0  0  0  0  0  0  0
    4.8970    1.8145    0.0000 C   0  0  0  0  0  0  0  0  0  0  0  0
    4.8970    3.3145    0.0000 C   0  0  0  0  0  0  0  0  0  0  0  0
    3.5980    2.5645    0.0000 C   0  0  0  0  0  0  0  0  0  0  0  0
    3.5980    4.0645    0.0000 C   0  0  0  0  0  0  0  0  0  0  0  0
    2.2990    3.3145    0.0000 C   0  0  0  0  0  0  0  0  0  0  0  0
    0.9999    4.0645    0.0000 C   0  0  0  0  0  0  0  0  0  0  0  0
   -0.2991    3.3145    0.0000 S   0  0  0  0  0  0  0  0  0  0  0  0
    0.4509    2.0155    0.0000 O   0  0  0  0  0  0  0  0  0  0  0  0
   -1.0491    4.6136    0.0000 O   0  0  0  0  0  0  0  0  0  0  0  0
   -1.5981    2.5645    0.0000 O   0  0  0  0  0  0  0  0  0  0  0  0
    8.9952    3.3145    0.0000 C   0  0  0  0  0  0  0  0  0  0  0  0
    9.7452    4.6136    0.0000 O   0  0  0  0  0  0  0  0  0  0  0  0
    9.7452    2.0155    0.0000 O   0  0  0  0  0  0  0  0  0  0  0  0
  1  2  1  0  0  0  0
  2  3  1  0  0  0  0
  2  4  1  0  0  0  0
  5  4  2  0  0  0  0
  4 19  1  0  0  0  0
  6  5  1  0  0  0  0
  7  6  1  0  0  0  0
  6 17  2  0  0  0  0
  8  7  1  0  0  0  0
  9  8  1  0  0  0  0
 10  9  1  0  0  0  0
  9 15  1  0  0  0  0
 10 11  1  0  0  0  0
 12 10  1  0  0  0  0
 10 24  1  0  0  0  0
 13 12  1  0  0  0  0
 14 13  1  0  0  0  0
 15 14  1  0  0  0  0
 15 16  1  0  0  0  0
 17 15  1  0  0  0  0
 18 17  1  0  0  0  0
 19 18  2  0  0  0  0
 19 20  1  0  0  0  0
 20 21  2  0  0  0  0
 20 22  2  0  0  0  0
 20 23  1  0  0  0  0
 24 25  2  0  0  0  0
 24 26  1  0  0  0  0
M  END
> <Inchi_key>
IWCWQNVIUXZOMJ-UHFFFAOYSA-N

> <Source>
Mulliner

> <ID>
HT0739

> <H_MFHB>
0

> <CAS>


> <Cholestasis>


> <Name>
ecabet

> <Class>
0


$$$$