
  -INDIGO-08031710012D

 14 14  0  0  0  0  0  0  0  0999 V2000
    6.8054    6.5643    0.0000 N   0  0  0  0  0  0  0  0  0  0  0  0
    6.7513    5.0653    0.0000 C   0  0  0  0  0  0  0  0  0  0  0  0
    8.0224    4.2689    0.0000 O   0  0  0  0  0  0  0  0  0  0  0  0
    5.4262    4.3626    0.0000 N   0  0  0  0  0  0  0  0  0  0  0  0
    5.3720    2.8636    0.0000 N   0  0  0  0  0  0  0  0  0  0  0  0
    4.0468    2.1609    0.0000 C   0  0  0  0  0  0  0  0  0  0  0  0
    2.7756    2.9572    0.0000 C   0  0  0  0  0  0  0  0  0  0  0  0
    1.3841    2.3969    0.0000 O   0  0  0  0  0  0  0  0  0  0  0  0
    0.4213    3.5471    0.0000 C   0  0  0  0  0  0  0  0  0  0  0  0
    1.2177    4.8183    0.0000 C   0  0  0  0  0  0  0  0  0  0  0  0
    2.6727    4.4537    0.0000 C   0  0  0  0  0  0  0  0  0  0  0  0
   -1.0752    3.4442    0.0000 N   0  0  0  0  0  0  0  0  0  0  0  0
   -1.9125    4.6887    0.0000 O   0  0  0  0  0  0  0  0  0  0  0  0
   -1.7344    2.0968    0.0000 O   0  0  0  0  0  0  0  0  0  0  0  0
  1  2  1  0  0  0  0
  2  3  2  0  0  0  0
  2  4  1  0  0  0  0
  4  5  1  0  0  0  0
  5  6  2  0  0  0  0
  6  7  1  0  0  0  0
  8  7  1  0  0  0  0
  7 11  2  0  0  0  0
  9  8  1  0  0  0  0
 10  9  2  0  0  0  0
  9 12  1  0  0  0  0
 11 10  1  0  0  0  0
 12 13  2  0  0  0  0
 12 14  1  0  0  0  0
M  CHG  2  12   1  14  -1
M  END
> <Inchi_key>
IAIWVQXQOWNYOU-BAQGIRSFSA-N

> <Source>
Mulliner

> <ID>
HT1508

> <H_MFHB>
0

> <CAS>
59-87-0

> <Cholestasis>


> <Name>
nitrofurazone

> <Class>
0

$$$$