

  -INDIGO-08031710012D

 18 19  0  0  0  0  0  0  0  0999 V2000
    4.8726    1.6226    0.0000 C   0  0  0  0  0  0  0  0  0  0  0  0
    4.8726    3.1226    0.0000 N   0  0  0  0  0  0  0  0  0  0  0  0
    6.1716    3.8726    0.0000 C   0  0  0  0  0  0  0  0  0  0  0  0
    6.1716    5.3726    0.0000 C   0  0  0  0  0  0  0  0  0  0  0  0
    4.8726    6.1226    0.0000 C   0  0  0  0  0  0  0  0  0  0  0  0
    3.5736    5.3726    0.0000 C   0  0  0  0  0  0  0  0  0  0  0  0
    3.5736    3.8726    0.0000 C   0  0  0  0  0  0  0  0  0  0  0  0
    2.2744    3.1226    0.0000 C   0  0  0  0  0  0  0  0  0  0  0  0
    2.2744    1.6226    0.0000 O   0  0  0  0  0  0  0  0  0  0  0  0
    0.9756    3.8726    0.0000 N   0  0  0  0  0  0  0  0  0  0  0  0
   -0.3236    3.1226    0.0000 C   0  0  0  0  0  0  0  0  0  0  0  0
   -1.6226    3.8726    0.0000 C   0  0  0  0  0  0  0  0  0  0  0  0
   -1.6226    5.3726    0.0000 C   0  0  0  0  0  0  0  0  0  0  0  0
   -2.9216    3.1226    0.0000 C   0  0  0  0  0  0  0  0  0  0  0  0
   -2.9216    1.6226    0.0000 C   0  0  0  0  0  0  0  0  0  0  0  0
   -1.6226    0.8726    0.0000 C   0  0  0  0  0  0  0  0  0  0  0  0
   -0.3236    1.6226    0.0000 C   0  0  0  0  0  0  0  0  0  0  0  0
    0.9756    0.8726    0.0000 C   0  0  0  0  0  0  0  0  0  0  0  0
  1  2  1  0  0  0  0
  3  2  1  0  0  0  0
  2  7  1  0  0  0  0
  4  3  1  0  0  0  0
  5  4  1  0  0  0  0
  6  5  1  0  0  0  0
  7  6  1  0  0  0  0
  7  8  1  0  0  0  0
  8  9  2  0  0  0  0
  8 10  1  0  0  0  0
 10 11  1  0  0  0  0
 12 11  2  0  0  0  0
 11 17  1  0  0  0  0
 12 13  1  0  0  0  0
 14 12  1  0  0  0  0
 15 14  2  0  0  0  0
 16 15  1  0  0  0  0
 17 16  2  0  0  0  0
 17 18  1  0  0  0  0
M  END
> <Inchi_key>
INWLQCZOYSRPNW-UHFFFAOYSA-N

> <Source>
Mulliner , Kotsampasakou

> <ID>
EK0322;HT1310

> <H_MFHB>
0

> <CAS>


> <Cholestasis>
0

> <Name>
mepivacaine hydrochloride;mepivacaine

> <Class>
0


$$$$