

  -INDIGO-08031710012D

 28 31  0  0  0  0  0  0  0  0999 V2000
   -3.1338   11.9468    0.0000 C   0  0  0  0  0  0  0  0  0  0  0  0
   -3.8839   10.6479    0.0000 O   0  0  0  0  0  0  0  0  0  0  0  0
   -3.1338    9.3486    0.0000 C   0  0  0  0  0  0  0  0  0  0  0  0
   -1.6339    9.3486    0.0000 C   0  0  0  0  0  0  0  0  0  0  0  0
   -0.8839    8.0497    0.0000 C   0  0  0  0  0  0  0  0  0  0  0  0
    0.6160    8.0497    0.0000 N   0  0  0  0  0  0  0  0  0  0  0  0
    1.3661    6.7507    0.0000 C   0  0  0  0  0  0  0  0  0  0  0  0
    0.6160    5.4517    0.0000 N   0  0  0  0  0  0  0  0  0  0  0  0
   -0.8839    5.4517    0.0000 C   0  0  0  0  0  0  0  0  0  0  0  0
   -1.6339    4.1526    0.0000 N   0  0  0  0  0  0  0  0  0  0  0  0
   -1.6339    6.7507    0.0000 C   0  0  0  0  0  0  0  0  0  0  0  0
   -3.1338    6.7507    0.0000 C   0  0  0  0  0  0  0  0  0  0  0  0
   -3.8839    8.0497    0.0000 C   0  0  0  0  0  0  0  0  0  0  0  0
   -5.3838    8.0497    0.0000 O   0  0  0  0  0  0  0  0  0  0  0  0
   -6.1339    6.7507    0.0000 C   0  0  0  0  0  0  0  0  0  0  0  0
    2.8660    6.7507    0.0000 N   0  0  0  0  0  0  0  0  0  0  0  0
    3.6161    8.0497    0.0000 C   0  0  0  0  0  0  0  0  0  0  0  0
    5.1160    8.0497    0.0000 C   0  0  0  0  0  0  0  0  0  0  0  0
    5.8661    6.7507    0.0000 N   0  0  0  0  0  0  0  0  0  0  0  0
    5.1160    5.4517    0.0000 C   0  0  0  0  0  0  0  0  0  0  0  0
    3.6161    5.4517    0.0000 C   0  0  0  0  0  0  0  0  0  0  0  0
    7.3662    6.7507    0.0000 C   0  0  0  0  0  0  0  0  0  0  0  0
    8.1160    8.0497    0.0000 O   0  0  0  0  0  0  0  0  0  0  0  0
    8.1160    5.4517    0.0000 C   0  0  0  0  0  0  0  0  0  0  0  0
    9.6079    5.2948    0.0000 O   0  0  0  0  0  0  0  0  0  0  0  0
    9.9197    3.8276    0.0000 C   0  0  0  0  0  0  0  0  0  0  0  0
    8.6207    3.0776    0.0000 C   0  0  0  0  0  0  0  0  0  0  0  0
    7.5061    4.0812    0.0000 C   0  0  0  0  0  0  0  0  0  0  0  0
  1  2  1  0  0  0  0
  2  3  1  0  0  0  0
  4  3  2  0  0  0  0
  3 13  1  0  0  0  0
  5  4  1  0  0  0  0
  6  5  2  0  0  0  0
  5 11  1  0  0  0  0
  7  6  1  0  0  0  0
  8  7  2  0  0  0  0
  7 16  1  0  0  0  0
  9  8  1  0  0  0  0
  9 10  1  0  0  0  0
 11  9  2  0  0  0  0
 12 11  1  0  0  0  0
 13 12  2  0  0  0  0
 13 14  1  0  0  0  0
 14 15  1  0  0  0  0
 17 16  1  0  0  0  0
 16 21  1  0  0  0  0
 18 17  1  0  0  0  0
 19 18  1  0  0  0  0
 20 19  1  0  0  0  0
 19 22  1  0  0  0  0
 21 20  1  0  0  0  0
 22 23  2  0  0  0  0
 22 24  1  0  0  0  0
 25 24  1  0  0  0  0
 24 28  2  0  0  0  0
 26 25  1  0  0  0  0
 27 26  2  0  0  0  0
 28 27  1  0  0  0  0
M  END
> <Inchi_key>
IENZQIKPVFGBNW-UHFFFAOYSA-N

> <Source>
Mulliner , Kotsampasakou

> <ID>
EK0437;HT1728

> <H_MFHB>
0

> <CAS>


> <Cholestasis>
0

> <Name>
prazosin hydrochloride;prazosin

> <Class>
0


$$$$