

  -INDIGO-08031710012D

 34 37  0  0  0  0  0  0  0  0999 V2000
   -0.2310   -0.4239    0.0000 C   0  0  0  0  0  0  0  0  0  0  0  0
    0.5825   -1.6842    0.0000 C   0  0  0  0  0  0  0  0  0  0  0  0
    2.0808   -1.6101    0.0000 C   0  0  0  0  0  0  0  0  0  0  0  0
    2.8939   -2.8704    0.0000 C   0  0  0  0  0  0  0  0  0  0  0  0
    4.3919   -2.7962    0.0000 C   0  0  0  0  0  0  0  0  0  0  0  0
    5.3393   -1.6332    0.0000 C   0  0  0  0  0  0  0  0  0  0  0  0
    6.7381   -2.1748    0.0000 C   0  0  0  0  0  0  0  0  0  0  0  0
    6.6553   -3.6725    0.0000 C   0  0  0  0  0  0  0  0  0  0  0  0
    7.2132   -5.0649    0.0000 O   0  0  0  0  0  0  0  0  0  0  0  0
    8.1466   -3.8336    0.0000 C   0  0  0  0  0  0  0  0  0  0  0  0
    8.7528   -5.2056    0.0000 O   0  0  0  0  0  0  0  0  0  0  0  0
    9.0319   -2.6227    0.0000 C   0  0  0  0  0  0  0  0  0  0  0  0
   10.5232   -2.7838    0.0000 O   0  0  0  0  0  0  0  0  0  0  0  0
   11.4085   -1.5728    0.0000 C   0  0  0  0  0  0  0  0  0  0  0  0
   10.8023   -0.2007    0.0000 O   0  0  0  0  0  0  0  0  0  0  0  0
   12.8998   -1.7339    0.0000 C   0  0  0  0  0  0  0  0  0  0  0  0
   13.7848   -0.5229    0.0000 C   0  0  0  0  0  0  0  0  0  0  0  0
   15.2761   -0.6840    0.0000 C   0  0  0  0  0  0  0  0  0  0  0  0
   16.1614    0.5270    0.0000 O   0  0  0  0  0  0  0  0  0  0  0  0
   15.8823   -2.0561    0.0000 O   0  0  0  0  0  0  0  0  0  0  0  0
    5.2054   -4.0566    0.0000 C   0  0  0  0  0  0  0  0  0  0  0  0
    6.1254   -5.2413    0.0000 C   0  0  0  0  0  0  0  0  0  0  0  0
    4.5203   -5.3911    0.0000 C   0  0  0  0  0  0  0  0  0  0  0  0
    3.0224   -5.4652    0.0000 C   0  0  0  0  0  0  0  0  0  0  0  0
    2.3376   -6.7998    0.0000 O   0  0  0  0  0  0  0  0  0  0  0  0
    2.2089   -4.2049    0.0000 C   0  0  0  0  0  0  0  0  0  0  0  0
    0.7109   -4.2790    0.0000 C   0  0  0  0  0  0  0  0  0  0  0  0
   -0.7874   -4.3533    0.0000 C   0  0  0  0  0  0  0  0  0  0  0  0
    0.0261   -5.6137    0.0000 C   0  0  0  0  0  0  0  0  0  0  0  0
   -1.4721   -5.6878    0.0000 C   0  0  0  0  0  0  0  0  0  0  0  0
   -2.2856   -4.4275    0.0000 C   0  0  0  0  0  0  0  0  0  0  0  0
   -3.7836   -4.5018    0.0000 O   0  0  0  0  0  0  0  0  0  0  0  0
   -1.6006   -3.0929    0.0000 C   0  0  0  0  0  0  0  0  0  0  0  0
   -0.1026   -3.0188    0.0000 C   0  0  0  0  0  0  0  0  0  0  0  0
  1  2  1  0  0  0  0
  3  2  1  0  0  0  0
  2 34  1  0  0  0  0
  4  3  1  0  0  0  0
  5  4  1  0  0  0  0
  4 26  1  0  0  0  0
  6  5  1  0  0  0  0
  5 21  1  0  0  0  0
  7  6  1  0  0  0  0
  8  7  1  0  0  0  0
  8  9  1  0  0  0  0
  8 10  1  0  0  0  0
 21  8  1  0  0  0  0
 10 11  2  0  0  0  0
 10 12  1  0  0  0  0
 12 13  1  0  0  0  0
 13 14  1  0  0  0  0
 14 15  2  0  0  0  0
 14 16  1  0  0  0  0
 16 17  1  0  0  0  0
 17 18  1  0  0  0  0
 18 19  2  0  0  0  0
 18 20  1  0  0  0  0
 21 22  1  0  0  0  0
 23 21  1  0  0  0  0
 24 23  1  0  0  0  0
 24 25  1  0  0  0  0
 26 24  1  0  0  0  0
 27 26  1  0  0  0  0
 27 28  1  0  0  0  0
 29 27  1  0  0  0  0
 27 34  1  0  0  0  0
 30 29  2  0  0  0  0
 31 30  1  0  0  0  0
 31 32  2  0  0  0  0
 33 31  1  0  0  0  0
 34 33  2  0  0  0  0
M  END
> <Inchi_key>
IMBXEJJVJRTNOW-UHFFFAOYSA-N

> <Source>
Mulliner

> <ID>
HT1366

> <H_MFHB>
0

> <CAS>


> <Cholestasis>


> <Name>
methylprednisolone sodium succinate

> <Class>
0


$$$$