
  -INDIGO-08031710012D

 24 27  0  0  0  0  0  0  0  0999 V2000
   -1.1356    0.7176    0.0000 C   0  0  0  0  0  0  0  0  0  0  0  0
   -1.7795    2.0724    0.0000 C   0  0  0  0  0  0  0  0  0  0  0  0
   -0.9281    3.3074    0.0000 C   0  0  0  0  0  0  0  0  0  0  0  0
   -0.1685    2.0139    0.0000 C   0  0  0  0  0  0  0  0  0  0  0  0
    1.3313    2.0249    0.0000 C   0  0  0  0  0  0  0  0  0  0  0  0
    2.0718    3.3294    0.0000 C   0  0  0  0  0  0  0  0  0  0  0  0
    1.3123    4.6229    0.0000 C   0  0  0  0  0  0  0  0  0  0  0  0
    2.0528    5.9274    0.0000 C   0  0  0  0  0  0  0  0  0  0  0  0
    3.5526    5.9384    0.0000 C   0  0  0  0  0  0  0  0  0  0  0  0
    4.3122    4.6449    0.0000 C   0  0  0  0  0  0  0  0  0  0  0  0
    5.8122    4.6559    0.0000 C   0  0  0  0  0  0  0  0  0  0  0  0
    6.5718    3.3624    0.0000 C   0  0  0  0  0  0  0  0  0  0  0  0
    8.0716    3.3734    0.0000 N   0  0  0  0  0  0  0  0  0  0  0  0
    8.8121    4.6779    0.0000 O   0  0  0  0  0  0  0  0  0  0  0  0
    5.8312    2.0579    0.0000 C   0  0  0  0  0  0  0  0  0  0  0  0
    4.3314    2.0469    0.0000 C   0  0  0  0  0  0  0  0  0  0  0  0
    3.5719    3.3404    0.0000 C   0  0  0  0  0  0  0  0  0  0  0  0
   -0.1878    4.6119    0.0000 C   0  0  0  0  0  0  0  0  0  0  0  0
   -1.1994    5.7192    0.0000 C   0  0  0  0  0  0  0  0  0  0  0  0
   -2.5652    5.0990    0.0000 C   0  0  0  0  0  0  0  0  0  0  0  0
   -2.3976    3.6085    0.0000 C   0  0  0  0  0  0  0  0  0  0  0  0
   -2.8755    2.1866    0.0000 O   0  0  0  0  0  0  0  0  0  0  0  0
   -3.8774    3.3629    0.0000 C   0  0  0  0  0  0  0  0  0  0  0  0
   -5.3571    3.1174    0.0000 C   0  0  0  0  0  0  0  0  0  0  0  0
  1  2  1  0  0  0  0
  2  3  1  0  0  0  0
  4  3  1  0  0  0  0
 18  3  1  0  0  0  0
  3 21  1  0  0  0  0
  5  4  1  0  0  0  0
  6  5  1  0  0  0  0
  6  7  1  0  0  0  0
 17  6  1  0  0  0  0
  7  8  1  0  0  0  0
 18  7  1  0  0  0  0
  8  9  1  0  0  0  0
  9 10  1  0  0  0  0
 11 10  2  0  0  0  0
 10 17  1  0  0  0  0
 12 11  1  0  0  0  0
 12 13  2  0  0  0  0
 15 12  1  0  0  0  0
 13 14  1  0  0  0  0
 16 15  1  0  0  0  0
 17 16  1  0  0  0  0
 19 18  1  0  0  0  0
 20 19  1  0  0  0  0
 21 20  1  0  0  0  0
 21 22  1  0  0  0  0
 21 23  1  0  0  0  0
 23 24  3  0  0  0  0
M  END
> <Inchi_key>
ISHXLNHNDMZNMC-JCMHNJIXSA-N

> <Source>
Mulliner

> <ID>
HT1519

> <H_MFHB>
0

> <CAS>


> <Cholestasis>


> <Name>
norelgestromin

> <Class>
0

$$$$