
  -INDIGO-08031710012D

 19 20  0  0  0  0  0  0  0  0999 V2000
    0.0990   -3.1043    0.0000 C   0  0  0  0  0  0  0  0  0  0  0  0
    1.3979   -2.3543    0.0000 C   0  0  0  0  0  0  0  0  0  0  0  0
    1.3979   -0.8543    0.0000 C   0  0  0  0  0  0  0  0  0  0  0  0
    2.6972   -0.1043    0.0000 C   0  0  0  0  0  0  0  0  0  0  0  0
    2.6972    1.3957    0.0000 C   0  0  0  0  0  0  0  0  0  0  0  0
    3.9961   -0.8543    0.0000 N   0  0  0  0  0  0  0  0  0  0  0  0
    3.9961   -2.3543    0.0000 C   0  0  0  0  0  0  0  0  0  0  0  0
    5.2950   -3.1043    0.0000 N   0  0  0  0  0  0  0  0  0  0  0  0
    6.5943   -2.3543    0.0000 S   0  0  0  0  0  0  0  0  0  0  0  0
    7.3443   -3.6533    0.0000 O   0  0  0  0  0  0  0  0  0  0  0  0
    5.8441   -1.0552    0.0000 O   0  0  0  0  0  0  0  0  0  0  0  0
    7.8932   -1.6043    0.0000 C   0  0  0  0  0  0  0  0  0  0  0  0
    7.8932   -0.1043    0.0000 C   0  0  0  0  0  0  0  0  0  0  0  0
    9.1923    0.6457    0.0000 C   0  0  0  0  0  0  0  0  0  0  0  0
   10.4914   -0.1043    0.0000 C   0  0  0  0  0  0  0  0  0  0  0  0
   11.7903    0.6457    0.0000 N   0  0  0  0  0  0  0  0  0  0  0  0
   10.4914   -1.6043    0.0000 C   0  0  0  0  0  0  0  0  0  0  0  0
    9.1923   -2.3543    0.0000 C   0  0  0  0  0  0  0  0  0  0  0  0
    2.6972   -3.1043    0.0000 N   0  0  0  0  0  0  0  0  0  0  0  0
  1  2  1  0  0  0  0
  3  2  2  0  0  0  0
  2 19  1  0  0  0  0
  4  3  1  0  0  0  0
  4  5  1  0  0  0  0
  6  4  2  0  0  0  0
  7  6  1  0  0  0  0
  7  8  1  0  0  0  0
 19  7  2  0  0  0  0
  8  9  1  0  0  0  0
  9 10  2  0  0  0  0
  9 11  2  0  0  0  0
  9 12  1  0  0  0  0
 13 12  2  0  0  0  0
 12 18  1  0  0  0  0
 14 13  1  0  0  0  0
 15 14  2  0  0  0  0
 15 16  1  0  0  0  0
 17 15  1  0  0  0  0
 18 17  2  0  0  0  0
M  END
> <Inchi_key>
ASWVTGNCAZCNNR-UHFFFAOYSA-N

> <Source>
Mulliner

> <ID>
HT1943

> <H_MFHB>
0

> <CAS>
57-68-1

> <Cholestasis>


> <Name>
sulfamethazine

> <Class>
0

$$$$