

  -INDIGO-08031710012D

 17 17  0  0  0  0  0  0  0  0999 V2000
   -0.3536   -0.3536    0.0000 C   0  0  0  0  0  0  0  0  0  0  0  0
   -0.3536   -1.8536    0.0000 C   0  0  0  0  0  0  0  0  0  0  0  0
    0.9454   -2.6036    0.0000 C   0  0  0  0  0  0  0  0  0  0  0  0
    0.9454   -4.1036    0.0000 N   0  0  0  0  0  0  0  0  0  0  0  0
   -0.3536   -4.8536    0.0000 C   0  0  0  0  0  0  0  0  0  0  0  0
   -0.3536   -6.3536    0.0000 C   0  0  0  0  0  0  0  0  0  0  0  0
   -1.6526   -4.1036    0.0000 C   0  0  0  0  0  0  0  0  0  0  0  0
    2.2445   -1.8536    0.0000 C   0  0  0  0  0  0  0  0  0  0  0  0
    2.2445   -0.3536    0.0000 O   0  0  0  0  0  0  0  0  0  0  0  0
    3.5436   -2.6036    0.0000 C   0  0  0  0  0  0  0  0  0  0  0  0
    3.5436   -4.1036    0.0000 C   0  0  0  0  0  0  0  0  0  0  0  0
    4.8427   -4.8536    0.0000 C   0  0  0  0  0  0  0  0  0  0  0  0
    6.1415   -4.1036    0.0000 C   0  0  0  0  0  0  0  0  0  0  0  0
    7.4407   -4.8536    0.0000 O   0  0  0  0  0  0  0  0  0  0  0  0
    6.1415   -2.6036    0.0000 C   0  0  0  0  0  0  0  0  0  0  0  0
    7.4407   -1.8536    0.0000 O   0  0  0  0  0  0  0  0  0  0  0  0
    4.8427   -1.8536    0.0000 C   0  0  0  0  0  0  0  0  0  0  0  0
  1  2  1  0  0  0  0
  2  3  1  0  0  0  0
  3  4  1  0  0  0  0
  3  8  1  0  0  0  0
  4  5  1  0  0  0  0
  5  6  1  0  0  0  0
  5  7  1  0  0  0  0
  8  9  1  0  0  0  0
  8 10  1  0  0  0  0
 11 10  2  0  0  0  0
 10 17  1  0  0  0  0
 12 11  1  0  0  0  0
 13 12  2  0  0  0  0
 13 14  1  0  0  0  0
 15 13  1  0  0  0  0
 15 16  1  0  0  0  0
 17 15  2  0  0  0  0
M  END
> <Inchi_key>
HUYWAWARQUIQLE-UHFFFAOYSA-N

> <Source>
Mulliner

> <ID>
HT1131

> <H_MFHB>
0

> <CAS>


> <Cholestasis>


> <Name>
isoetharine

> <Class>
0


$$$$