
  -INDIGO-08031710012D

 24 28  0  0  0  0  0  0  0  0999 V2000
   -0.0187    0.0855    0.0000 O   0  0  0  0  0  0  0  0  0  0  0  0
    1.4812    0.0642    0.0000 C   0  0  0  0  0  0  0  0  0  0  0  0
    2.2127   -1.2453    0.0000 C   0  0  0  0  0  0  0  0  0  0  0  0
    3.7126   -1.2665    0.0000 C   0  0  0  0  0  0  0  0  0  0  0  0
    4.4722    0.0528    0.0000 C   0  0  0  0  0  0  0  0  0  0  0  0
    5.9346    0.0219    0.0000 C   0  0  0  0  0  0  0  0  0  0  0  0
    6.6540    1.3287    0.0000 C   0  0  0  0  0  0  0  0  0  0  0  0
    8.0762    1.3192    0.0000 N   0  0  0  0  0  0  0  0  0  0  0  0
    9.4954    1.8048    0.0000 C   0  0  0  0  0  0  0  0  0  0  0  0
   10.6256    0.8185    0.0000 C   0  0  0  0  0  0  0  0  0  0  0  0
   12.1221    0.9202    0.0000 C   0  0  0  0  0  0  0  0  0  0  0  0
   12.2239   -0.5763    0.0000 C   0  0  0  0  0  0  0  0  0  0  0  0
   10.7274   -0.6780    0.0000 C   0  0  0  0  0  0  0  0  0  0  0  0
    6.8189    0.3337    0.0000 C   0  0  0  0  0  0  0  0  0  0  0  0
    5.1997    1.3264    0.0000 C   0  0  0  0  0  0  0  0  0  0  0  0
    4.4939    2.5845    0.0000 C   0  0  0  0  0  0  0  0  0  0  0  0
    3.7795    3.8739    0.0000 C   0  0  0  0  0  0  0  0  0  0  0  0
    4.5284    5.1349    0.0000 C   0  0  0  0  0  0  0  0  0  0  0  0
    6.0033    5.1258    0.0000 C   0  0  0  0  0  0  0  0  0  0  0  0
    6.7186    3.8350    0.0000 C   0  0  0  0  0  0  0  0  0  0  0  0
    5.9695    2.5740    0.0000 C   0  0  0  0  0  0  0  0  0  0  0  0
    7.4694    2.5554    0.0000 O   0  0  0  0  0  0  0  0  0  0  0  0
    3.7448    1.3235    0.0000 C   0  0  0  0  0  0  0  0  0  0  0  0
    2.2495    1.3525    0.0000 C   0  0  0  0  0  0  0  0  0  0  0  0
  1  2  1  0  0  0  0
  3  2  2  0  0  0  0
  2 24  1  0  0  0  0
  4  3  1  0  0  0  0
  5  4  2  0  0  0  0
  6  5  1  0  0  0  0
  5 23  1  0  0  0  0
  7  6  1  0  0  0  0
  7  8  1  0  0  0  0
 21  7  1  0  0  0  0
  8  9  1  0  0  0  0
  8 14  1  0  0  0  0
  9 10  1  0  0  0  0
 11 10  1  0  0  0  0
 10 13  1  0  0  0  0
 12 11  1  0  0  0  0
 13 12  1  0  0  0  0
 14 15  1  0  0  0  0
 15 16  1  0  0  0  0
 17 16  1  0  0  0  0
 16 21  1  0  0  0  0
 23 16  1  0  0  0  0
 18 17  1  0  0  0  0
 19 18  1  0  0  0  0
 20 19  1  0  0  0  0
 21 20  1  0  0  0  0
 21 22  1  0  0  0  0
 24 23  2  0  0  0  0
M  END
> <Inchi_key>
IFKLAQQSCNILHL-UHFFFAOYSA-N

> <Source>
Mulliner , Kotsampasakou

> <ID>
EK0080;HT0341

> <H_MFHB>
0

> <CAS>


> <Cholestasis>
0

> <Name>
butorphanol tartrate;butorphanol

> <Class>
0

$$$$