
  -INDIGO-08031710012D

 22 25  0  0  0  0  0  0  0  0999 V2000
    9.1739   -5.2669    0.0000 C   0  0  0  0  0  0  0  0  0  0  0  0
    8.4177   -3.9716    0.0000 C   0  0  0  0  0  0  0  0  0  0  0  0
    6.9175   -3.9788    0.0000 C   0  0  0  0  0  0  0  0  0  0  0  0
    6.1613   -2.6834    0.0000 C   0  0  0  0  0  0  0  0  0  0  0  0
    5.3949   -3.9729    0.0000 C   0  0  0  0  0  0  0  0  0  0  0  0
    6.9050   -1.3808    0.0000 C   0  0  0  0  0  0  0  0  0  0  0  0
    6.1486   -0.0854    0.0000 C   0  0  0  0  0  0  0  0  0  0  0  0
    4.6488   -0.0927    0.0000 C   0  0  0  0  0  0  0  0  0  0  0  0
    3.9052   -1.3953    0.0000 C   0  0  0  0  0  0  0  0  0  0  0  0
    2.4050   -1.4026    0.0000 C   0  0  0  0  0  0  0  0  0  0  0  0
    1.3960   -0.2928    0.0000 C   0  0  0  0  0  0  0  0  0  0  0  0
    0.0285   -0.9095    0.0000 C   0  0  0  0  0  0  0  0  0  0  0  0
    0.1927   -2.4005    0.0000 C   0  0  0  0  0  0  0  0  0  0  0  0
   -0.9172   -3.4096    0.0000 O   0  0  0  0  0  0  0  0  0  0  0  0
    1.6614   -2.7052    0.0000 C   0  0  0  0  0  0  0  0  0  0  0  0
    0.7856   -3.9230    0.0000 C   0  0  0  0  0  0  0  0  0  0  0  0
    2.4177   -4.0006    0.0000 C   0  0  0  0  0  0  0  0  0  0  0  0
    3.9177   -3.9934    0.0000 C   0  0  0  0  0  0  0  0  0  0  0  0
    4.6614   -2.6907    0.0000 C   0  0  0  0  0  0  0  0  0  0  0  0
    8.4050   -1.3735    0.0000 C   0  0  0  0  0  0  0  0  0  0  0  0
    9.1613   -2.6689    0.0000 C   0  0  0  0  0  0  0  0  0  0  0  0
   10.6613   -2.6616    0.0000 O   0  0  0  0  0  0  0  0  0  0  0  0
  1  2  1  0  0  0  0
  3  2  1  0  0  0  0
  2 21  1  0  0  0  0
  4  3  1  0  0  0  0
  4  5  1  0  0  0  0
  4  6  1  0  0  0  0
 19  4  1  0  0  0  0
  6  7  1  0  0  0  0
 20  6  1  0  0  0  0
  7  8  1  0  0  0  0
  8  9  1  0  0  0  0
 10  9  1  0  0  0  0
  9 19  1  0  0  0  0
 11 10  1  0  0  0  0
 10 15  1  0  0  0  0
 12 11  1  0  0  0  0
 13 12  1  0  0  0  0
 13 14  1  0  0  0  0
 15 13  1  0  0  0  0
 15 16  1  0  0  0  0
 17 15  1  0  0  0  0
 18 17  1  0  0  0  0
 19 18  1  0  0  0  0
 21 20  1  0  0  0  0
 21 22  2  0  0  0  0
M  END
> <Inchi_key>
IKXILDNPCZPPRV-UHFFFAOYSA-N

> <Source>
Mulliner

> <ID>
HT0728

> <H_MFHB>
0

> <CAS>


> <Cholestasis>


> <Name>
drostanolone

> <Class>
0

$$$$