
  -INDIGO-08031710012D

 23 24  0  0  0  0  0  0  0  0999 V2000
   -0.7563   -5.9084    0.0000 O   0  0  0  0  0  0  0  0  0  0  0  0
   -0.7563   -4.4084    0.0000 C   0  0  0  0  0  0  0  0  0  0  0  0
    0.5427   -3.6584    0.0000 C   0  0  0  0  0  0  0  0  0  0  0  0
    1.8417   -4.4084    0.0000 N   0  0  0  0  0  0  0  0  0  0  0  0
    3.1410   -3.6584    0.0000 C   0  0  0  0  0  0  0  0  0  0  0  0
    4.4398   -4.4084    0.0000 C   0  0  0  0  0  0  0  0  0  0  0  0
    5.7391   -3.6584    0.0000 C   0  0  0  0  0  0  0  0  0  0  0  0
    7.0381   -4.4084    0.0000 C   0  0  0  0  0  0  0  0  0  0  0  0
    8.3371   -3.6584    0.0000 C   0  0  0  0  0  0  0  0  0  0  0  0
    9.6362   -4.4084    0.0000 C   0  0  0  0  0  0  0  0  0  0  0  0
   10.9352   -3.6584    0.0000 C   0  0  0  0  0  0  0  0  0  0  0  0
   10.9352   -2.1584    0.0000 C   0  0  0  0  0  0  0  0  0  0  0  0
   12.2342   -1.4084    0.0000 O   0  0  0  0  0  0  0  0  0  0  0  0
    9.6362   -1.4084    0.0000 C   0  0  0  0  0  0  0  0  0  0  0  0
    8.3371   -2.1584    0.0000 C   0  0  0  0  0  0  0  0  0  0  0  0
   -2.0553   -3.6584    0.0000 C   0  0  0  0  0  0  0  0  0  0  0  0
   -2.0553   -2.1584    0.0000 C   0  0  0  0  0  0  0  0  0  0  0  0
   -3.3544   -1.4084    0.0000 C   0  0  0  0  0  0  0  0  0  0  0  0
   -4.6534   -2.1584    0.0000 C   0  0  0  0  0  0  0  0  0  0  0  0
   -5.9524   -1.4084    0.0000 O   0  0  0  0  0  0  0  0  0  0  0  0
   -4.6534   -3.6584    0.0000 C   0  0  0  0  0  0  0  0  0  0  0  0
   -5.9524   -4.4084    0.0000 O   0  0  0  0  0  0  0  0  0  0  0  0
   -3.3544   -4.4084    0.0000 C   0  0  0  0  0  0  0  0  0  0  0  0
  1  2  1  0  0  0  0
  2  3  1  0  0  0  0
  2 16  1  0  0  0  0
  3  4  1  0  0  0  0
  4  5  1  0  0  0  0
  5  6  1  0  0  0  0
  6  7  1  0  0  0  0
  7  8  1  0  0  0  0
  8  9  1  0  0  0  0
 10  9  2  0  0  0  0
  9 15  1  0  0  0  0
 11 10  1  0  0  0  0
 12 11  2  0  0  0  0
 12 13  1  0  0  0  0
 14 12  1  0  0  0  0
 15 14  2  0  0  0  0
 17 16  2  0  0  0  0
 16 23  1  0  0  0  0
 18 17  1  0  0  0  0
 19 18  2  0  0  0  0
 19 20  1  0  0  0  0
 21 19  1  0  0  0  0
 21 22  1  0  0  0  0
 23 21  2  0  0  0  0
M  END
> <Inchi_key>
IIRWWTKISYTTBL-UHFFFAOYSA-N

> <Source>
Mulliner

> <ID>
HT0177

> <H_MFHB>
0

> <CAS>


> <Cholestasis>


> <Name>
arbutamine

> <Class>
0

$$$$