

  -INDIGO-08031709442D

  4  3  0  0  0  0  0  0  0  0999 V2000
   -0.0736   -1.0245    0.0000 O   0  0  0  0  0  0  0  0  0  0  0  0
    1.2255   -0.2745    0.0000 C   0  0  0  0  0  0  0  0  0  0  0  0
    2.5245   -1.0245    0.0000 C   0  0  0  0  0  0  0  0  0  0  0  0
    3.8236   -0.2745    0.0000 N   0  0  0  0  0  0  0  0  0  0  0  0
  1  2  1  0  0  0  0
  2  3  1  0  0  0  0
  3  4  1  0  0  0  0
M  END
> <Inchi_key>
HZAXFHJVJLSVMW-UHFFFAOYSA-N

> <Source>
Kotsampasakou

> <ID>
EK0204

> <H_MFHB>


> <CAS>


> <Cholestasis>
0

> <Name>
ethanolamine

> <Class>
0


$$$$