

  -INDIGO-08031710012D

 32 36  0  0  0  0  0  0  0  0999 V2000
   -1.1226   -4.7042    0.0000 N   0  0  0  0  0  0  0  0  0  0  0  0
   -2.6220   -4.7531    0.0000 C   0  0  0  0  0  0  0  0  0  0  0  0
   -3.3293   -6.0758    0.0000 O   0  0  0  0  0  0  0  0  0  0  0  0
   -3.4139   -3.4791    0.0000 C   0  0  0  0  0  0  0  0  0  0  0  0
   -2.1400   -2.6872    0.0000 C   0  0  0  0  0  0  0  0  0  0  0  0
   -2.0318   -1.1911    0.0000 C   0  0  0  0  0  0  0  0  0  0  0  0
   -0.5756   -0.8317    0.0000 C   0  0  0  0  0  0  0  0  0  0  0  0
    0.2163   -2.1056    0.0000 N   0  0  0  0  0  0  0  0  0  0  0  0
    1.7125   -2.2137    0.0000 C   0  0  0  0  0  0  0  0  0  0  0  0
    2.5542   -0.9722    0.0000 C   0  0  0  0  0  0  0  0  0  0  0  0
    4.0503   -1.0803    0.0000 C   0  0  0  0  0  0  0  0  0  0  0  0
    4.7046   -2.4300    0.0000 C   0  0  0  0  0  0  0  0  0  0  0  0
    6.2008   -2.5382    0.0000 C   0  0  0  0  0  0  0  0  0  0  0  0
    7.0425   -1.2966    0.0000 C   0  0  0  0  0  0  0  0  0  0  0  0
    8.5283   -1.0913    0.0000 O   0  0  0  0  0  0  0  0  0  0  0  0
    8.7923    0.3854    0.0000 C   0  0  0  0  0  0  0  0  0  0  0  0
    7.4696    1.0926    0.0000 C   0  0  0  0  0  0  0  0  0  0  0  0
    6.3882    0.0531    0.0000 C   0  0  0  0  0  0  0  0  0  0  0  0
    4.8920    0.1613    0.0000 C   0  0  0  0  0  0  0  0  0  0  0  0
   -0.7505   -3.2524    0.0000 C   0  0  0  0  0  0  0  0  0  0  0  0
   -4.6878   -4.2710    0.0000 C   0  0  0  0  0  0  0  0  0  0  0  0
   -6.0106   -3.5636    0.0000 C   0  0  0  0  0  0  0  0  0  0  0  0
   -7.2845   -4.3556    0.0000 C   0  0  0  0  0  0  0  0  0  0  0  0
   -7.2357   -5.8549    0.0000 C   0  0  0  0  0  0  0  0  0  0  0  0
   -5.9129   -6.5621    0.0000 C   0  0  0  0  0  0  0  0  0  0  0  0
   -4.6390   -5.7702    0.0000 C   0  0  0  0  0  0  0  0  0  0  0  0
   -4.2058   -2.2052    0.0000 C   0  0  0  0  0  0  0  0  0  0  0  0
   -3.4983   -0.8824    0.0000 C   0  0  0  0  0  0  0  0  0  0  0  0
   -4.2904    0.3915    0.0000 C   0  0  0  0  0  0  0  0  0  0  0  0
   -5.7895    0.3427    0.0000 C   0  0  0  0  0  0  0  0  0  0  0  0
   -6.4968   -0.9801    0.0000 C   0  0  0  0  0  0  0  0  0  0  0  0
   -5.7049   -2.2540    0.0000 C   0  0  0  0  0  0  0  0  0  0  0  0
  1  2  1  0  0  0  0
  2  3  2  0  0  0  0
  2  4  1  0  0  0  0
  4  5  1  0  0  0  0
  4 21  1  0  0  0  0
  4 27  1  0  0  0  0
  6  5  1  0  0  0  0
  5 20  1  0  0  0  0
  7  6  1  0  0  0  0
  8  7  1  0  0  0  0
  8  9  1  0  0  0  0
 20  8  1  0  0  0  0
  9 10  1  0  0  0  0
 10 11  1  0  0  0  0
 12 11  2  0  0  0  0
 11 19  1  0  0  0  0
 13 12  1  0  0  0  0
 14 13  2  0  0  0  0
 15 14  1  0  0  0  0
 14 18  1  0  0  0  0
 16 15  1  0  0  0  0
 17 16  1  0  0  0  0
 18 17  1  0  0  0  0
 19 18  2  0  0  0  0
 22 21  2  0  0  0  0
 21 26  1  0  0  0  0
 23 22  1  0  0  0  0
 24 23  2  0  0  0  0
 25 24  1  0  0  0  0
 26 25  2  0  0  0  0
 28 27  2  0  0  0  0
 27 32  1  0  0  0  0
 29 28  1  0  0  0  0
 30 29  2  0  0  0  0
 31 30  1  0  0  0  0
 32 31  2  0  0  0  0
M  END
> <Inchi_key>
HXGBXQDTNZMWGS-UHFFFAOYSA-N

> <Source>
Mulliner , Kotsampasakou

> <ID>
EK0147;HT0592

> <H_MFHB>
0

> <CAS>


> <Cholestasis>
0

> <Name>
darifenacin hydrobromide;darifenacin

> <Class>
0


$$$$