
  -INDIGO-08031710012D

 23 26  0  0  0  0  0  0  0  0999 V2000
   12.2080   -7.0483    0.0000 C   0  0  0  0  0  0  0  0  0  0  0  0
   11.4581   -5.7493    0.0000 O   0  0  0  0  0  0  0  0  0  0  0  0
    9.9581   -5.7493    0.0000 C   0  0  0  0  0  0  0  0  0  0  0  0
    9.2079   -7.0483    0.0000 C   0  0  0  0  0  0  0  0  0  0  0  0
    7.7079   -7.0483    0.0000 C   0  0  0  0  0  0  0  0  0  0  0  0
    6.9580   -5.7493    0.0000 C   0  0  0  0  0  0  0  0  0  0  0  0
    5.4579   -5.7493    0.0000 C   0  0  0  0  0  0  0  0  0  0  0  0
    4.7080   -7.0483    0.0000 C   0  0  0  0  0  0  0  0  0  0  0  0
    3.2080   -7.0483    0.0000 C   0  0  0  0  0  0  0  0  0  0  0  0
    2.4581   -5.7493    0.0000 C   0  0  0  0  0  0  0  0  0  0  0  0
    1.5346   -6.9313    0.0000 C   0  0  0  0  0  0  0  0  0  0  0  0
    3.2080   -4.4502    0.0000 C   0  0  0  0  0  0  0  0  0  0  0  0
    2.2043   -3.3355    0.0000 C   0  0  0  0  0  0  0  0  0  0  0  0
    0.8340   -3.9456    0.0000 C   0  0  0  0  0  0  0  0  0  0  0  0
    0.9907   -5.4374    0.0000 C   0  0  0  0  0  0  0  0  0  0  0  0
    0.5648   -6.8756    0.0000 O   0  0  0  0  0  0  0  0  0  0  0  0
   -0.4840   -5.7108    0.0000 C   0  0  0  0  0  0  0  0  0  0  0  0
   -1.9590   -5.9841    0.0000 C   0  0  0  0  0  0  0  0  0  0  0  0
    4.7080   -4.4502    0.0000 C   0  0  0  0  0  0  0  0  0  0  0  0
    5.4579   -3.1512    0.0000 C   0  0  0  0  0  0  0  0  0  0  0  0
    6.9580   -3.1512    0.0000 C   0  0  0  0  0  0  0  0  0  0  0  0
    7.7079   -4.4502    0.0000 C   0  0  0  0  0  0  0  0  0  0  0  0
    9.2079   -4.4502    0.0000 C   0  0  0  0  0  0  0  0  0  0  0  0
  1  2  1  0  0  0  0
  2  3  1  0  0  0  0
  4  3  2  0  0  0  0
  3 23  1  0  0  0  0
  5  4  1  0  0  0  0
  6  5  2  0  0  0  0
  7  6  1  0  0  0  0
  6 22  1  0  0  0  0
  8  7  1  0  0  0  0
  7 19  1  0  0  0  0
  9  8  1  0  0  0  0
 10  9  1  0  0  0  0
 10 11  1  0  0  0  0
 10 12  1  0  0  0  0
 15 10  1  0  0  0  0
 12 13  1  0  0  0  0
 19 12  1  0  0  0  0
 13 14  1  0  0  0  0
 14 15  1  0  0  0  0
 15 16  1  0  0  0  0
 15 17  1  0  0  0  0
 17 18  3  0  0  0  0
 20 19  1  0  0  0  0
 21 20  1  0  0  0  0
 22 21  1  0  0  0  0
 23 22  2  0  0  0  0
M  END
> <Inchi_key>
IMSSROKUHAOUJS-UHFFFAOYSA-N

> <Source>
Mulliner

> <ID>
HT1321

> <H_MFHB>
0

> <CAS>


> <Cholestasis>


> <Name>
mestranol

> <Class>
0

$$$$