

  -INDIGO-08031710012D

 20 23  0  0  0  0  0  0  0  0999 V2000
    6.8799    5.9035    0.0000 C   0  0  0  0  0  0  0  0  0  0  0  0
    7.6666    4.6264    0.0000 C   0  0  0  0  0  0  0  0  0  0  0  0
    6.6951    3.4835    0.0000 N   0  0  0  0  0  0  0  0  0  0  0  0
    5.3080    4.0543    0.0000 C   0  0  0  0  0  0  0  0  0  0  0  0
    5.4221    5.5499    0.0000 N   0  0  0  0  0  0  0  0  0  0  0  0
    4.0307    3.2676    0.0000 C   0  0  0  0  0  0  0  0  0  0  0  0
    3.3181    1.9477    0.0000 C   0  0  0  0  0  0  0  0  0  0  0  0
    2.5313    3.2248    0.0000 C   0  0  0  0  0  0  0  0  0  0  0  0
    1.9181    4.5937    0.0000 C   0  0  0  0  0  0  0  0  0  0  0  0
    0.4260    4.7471    0.0000 C   0  0  0  0  0  0  0  0  0  0  0  0
   -0.1873    6.1160    0.0000 C   0  0  0  0  0  0  0  0  0  0  0  0
    0.6915    7.3315    0.0000 C   0  0  0  0  0  0  0  0  0  0  0  0
    2.1836    7.1782    0.0000 C   0  0  0  0  0  0  0  0  0  0  0  0
    2.7970    5.8093    0.0000 C   0  0  0  0  0  0  0  0  0  0  0  0
    1.0504    2.9868    0.0000 C   0  0  0  0  0  0  0  0  0  0  0  0
    0.1037    4.1503    0.0000 C   0  0  0  0  0  0  0  0  0  0  0  0
   -1.3773    3.9122    0.0000 C   0  0  0  0  0  0  0  0  0  0  0  0
   -1.9116    2.5106    0.0000 C   0  0  0  0  0  0  0  0  0  0  0  0
   -0.9650    1.3470    0.0000 C   0  0  0  0  0  0  0  0  0  0  0  0
    0.5162    1.5851    0.0000 C   0  0  0  0  0  0  0  0  0  0  0  0
  2  1  1  0  0  0  0
  1  5  1  0  0  0  0
  3  2  1  0  0  0  0
  4  3  2  0  0  0  0
  5  4  1  0  0  0  0
  4  6  1  0  0  0  0
  7  6  1  0  0  0  0
  6  8  1  0  0  0  0
  8  7  1  0  0  0  0
  8  9  1  0  0  0  0
  8 15  1  0  0  0  0
 10  9  2  0  0  0  0
  9 14  1  0  0  0  0
 11 10  1  0  0  0  0
 12 11  2  0  0  0  0
 13 12  1  0  0  0  0
 14 13  2  0  0  0  0
 16 15  2  0  0  0  0
 15 20  1  0  0  0  0
 17 16  1  0  0  0  0
 18 17  2  0  0  0  0
 19 18  1  0  0  0  0
 20 19  2  0  0  0  0
M  END
> <Inchi_key>
IPOBOOXFSRWSHL-UHFFFAOYSA-N

> <Source>
Mulliner

> <ID>
HT0478

> <H_MFHB>
0

> <CAS>


> <Cholestasis>


> <Name>
cibenzoline

> <Class>
0


$$$$