

  -INDIGO-08031710012D

 32 34  0  0  0  0  0  0  0  0999 V2000
    9.4764   -0.5192    0.0000 O   0  0  0  0  0  0  0  0  0  0  0  0
    9.4125    0.9794    0.0000 C   0  0  0  0  0  0  0  0  0  0  0  0
   10.6785    1.7841    0.0000 N   0  0  0  0  0  0  0  0  0  0  0  0
    8.0826    1.6734    0.0000 C   0  0  0  0  0  0  0  0  0  0  0  0
    8.0188    3.1720    0.0000 C   0  0  0  0  0  0  0  0  0  0  0  0
    6.8169    0.8687    0.0000 C   0  0  0  0  0  0  0  0  0  0  0  0
    6.6889    3.8660    0.0000 C   0  0  0  0  0  0  0  0  0  0  0  0
    9.2845    3.9767    0.0000 N   0  0  0  0  0  0  0  0  0  0  0  0
    5.4871    1.5626    0.0000 C   0  0  0  0  0  0  0  0  0  0  0  0
    5.4229    3.0613    0.0000 C   0  0  0  0  0  0  0  0  0  0  0  0
   10.6144    3.2828    0.0000 C   0  0  0  0  0  0  0  0  0  0  0  0
    4.2210    0.7579    0.0000 C   0  0  0  0  0  0  0  0  0  0  0  0
   11.8804    4.0875    0.0000 C   0  0  0  0  0  0  0  0  0  0  0  0
    2.8912    1.4519    0.0000 N   0  0  0  0  0  0  0  0  0  0  0  0
    2.8273    2.9505    0.0000 C   0  0  0  0  0  0  0  0  0  0  0  0
    1.6255    0.6472    0.0000 C   0  0  0  0  0  0  0  0  0  0  0  0
    1.5322   -0.8499    0.0000 C   0  0  0  0  0  0  0  0  0  0  0  0
    0.2305    1.1983    0.0000 S   0  0  0  0  0  0  0  0  0  0  0  0
    0.0798   -1.2240    0.0000 C   0  0  0  0  0  0  0  0  0  0  0  0
   -0.7250    0.0419    0.0000 C   0  0  0  0  0  0  0  0  0  0  0  0
   -2.2221    0.1349    0.0000 C   0  0  0  0  0  0  0  0  0  0  0  0
   -3.0511   -1.1151    0.0000 O   0  0  0  0  0  0  0  0  0  0  0  0
   -2.8899    1.4780    0.0000 N   0  0  0  0  0  0  0  0  0  0  0  0
   -4.3871    1.5710    0.0000 C   0  0  0  0  0  0  0  0  0  0  0  0
   -5.2164    0.3210    0.0000 C   0  0  0  0  0  0  0  0  0  0  0  0
   -5.0552    2.9141    0.0000 C   0  0  0  0  0  0  0  0  0  0  0  0
   -6.7135    0.4141    0.0000 C   0  0  0  0  0  0  0  0  0  0  0  0
   -6.5523    3.0072    0.0000 O   0  0  0  0  0  0  0  0  0  0  0  0
   -4.2259    4.1641    0.0000 O   0  0  0  0  0  0  0  0  0  0  0  0
   -7.5426   -0.8359    0.0000 C   0  0  0  0  0  0  0  0  0  0  0  0
   -6.8747   -2.1790    0.0000 O   0  0  0  0  0  0  0  0  0  0  0  0
   -9.0397   -0.7428    0.0000 O   0  0  0  0  0  0  0  0  0  0  0  0
  1  2  2  0  0  0  0
  3  2  1  0  0  0  0
  2  4  1  0  0  0  0
  5  4  2  0  0  0  0
  4  6  1  0  0  0  0
  7  5  1  0  0  0  0
  5  8  1  0  0  0  0
  6  9  2  0  0  0  0
 10  7  2  0  0  0  0
  8 11  2  0  0  0  0
  9 12  1  0  0  0  0
  9 10  1  0  0  0  0
 11 13  1  0  0  0  0
 11  3  1  0  0  0  0
 12 14  1  0  0  0  0
 14 15  1  0  0  0  0
 14 16  1  0  0  0  0
 17 16  2  0  0  0  0
 16 18  1  0  0  0  0
 19 17  1  0  0  0  0
 18 20  1  0  0  0  0
 20 19  2  0  0  0  0
 20 21  1  0  0  0  0
 21 22  2  0  0  0  0
 21 23  1  0  0  0  0
 23 24  1  0  0  0  0
 24 25  1  0  0  0  0
 24 26  1  0  0  0  0
 25 27  1  0  0  0  0
 26 28  2  0  0  0  0
 26 29  1  0  0  0  0
 27 30  1  0  0  0  0
 30 31  2  0  0  0  0
 30 32  1  0  0  0  0
M  END
> <Inchi_key>
IVTVGDXNLFLDRM-UHFFFAOYSA-N

> <Source>
Mulliner

> <ID>
HT1796

> <H_MFHB>
0

> <CAS>
112887-68-0

> <Cholestasis>


> <Name>
raltitrexed

> <Class>
0


$$$$