

  -INDIGO-08031710012D

 17 18  0  0  0  0  0  0  0  0999 V2000
    2.7739    4.8046    0.0000 C   0  0  0  0  0  0  0  0  0  0  0  0
    3.5239    3.5056    0.0000 C   0  0  0  0  0  0  0  0  0  0  0  0
    4.2739    2.2065    0.0000 C   0  0  0  0  0  0  0  0  0  0  0  0
    4.8230    4.2556    0.0000 C   0  0  0  0  0  0  0  0  0  0  0  0
    2.2248    2.7556    0.0000 C   0  0  0  0  0  0  0  0  0  0  0  0
    2.2248    1.2556    0.0000 O   0  0  0  0  0  0  0  0  0  0  0  0
    0.9259    3.5056    0.0000 C   0  0  0  0  0  0  0  0  0  0  0  0
   -0.3731    2.7556    0.0000 C   0  0  0  0  0  0  0  0  0  0  0  0
   -1.6722    3.5056    0.0000 C   0  0  0  0  0  0  0  0  0  0  0  0
   -1.6722    5.0056    0.0000 C   0  0  0  0  0  0  0  0  0  0  0  0
   -2.9711    5.7556    0.0000 C   0  0  0  0  0  0  0  0  0  0  0  0
   -4.2704    5.0056    0.0000 C   0  0  0  0  0  0  0  0  0  0  0  0
   -5.6970    5.4691    0.0000 O   0  0  0  0  0  0  0  0  0  0  0  0
   -6.5785    4.2556    0.0000 C   0  0  0  0  0  0  0  0  0  0  0  0
   -5.6970    3.0421    0.0000 O   0  0  0  0  0  0  0  0  0  0  0  0
   -4.2704    3.5056    0.0000 C   0  0  0  0  0  0  0  0  0  0  0  0
   -2.9711    2.7556    0.0000 C   0  0  0  0  0  0  0  0  0  0  0  0
  1  2  1  0  0  0  0
  2  3  1  0  0  0  0
  2  4  1  0  0  0  0
  2  5  1  0  0  0  0
  5  6  1  0  0  0  0
  5  7  1  0  0  0  0
  7  8  2  0  0  0  0
  8  9  1  0  0  0  0
 10  9  2  0  0  0  0
  9 17  1  0  0  0  0
 11 10  1  0  0  0  0
 12 11  2  0  0  0  0
 13 12  1  0  0  0  0
 12 16  1  0  0  0  0
 14 13  1  0  0  0  0
 15 14  1  0  0  0  0
 16 15  1  0  0  0  0
 17 16  2  0  0  0  0
M  END
> <Inchi_key>
IBLNKMRFIPWSOY-FNORWQNLSA-N

> <Source>
Mulliner

> <ID>
HT1917

> <H_MFHB>
0

> <CAS>


> <Cholestasis>


> <Name>
stiripentol

> <Class>
0


$$$$