

  -INDIGO-08031710012D

 24 25  0  0  0  0  0  0  0  0999 V2000
   13.6766    3.6646    0.0000 C   0  0  0  0  0  0  0  0  0  0  0  0
   12.3775    2.9146    0.0000 C   0  0  0  0  0  0  0  0  0  0  0  0
   12.3775    1.4146    0.0000 N   0  0  0  0  0  0  0  0  0  0  0  0
   13.6766    0.6646    0.0000 C   0  0  0  0  0  0  0  0  0  0  0  0
   13.6766   -0.8354    0.0000 C   0  0  0  0  0  0  0  0  0  0  0  0
   11.0786    0.6646    0.0000 C   0  0  0  0  0  0  0  0  0  0  0  0
    9.7795    1.4146    0.0000 C   0  0  0  0  0  0  0  0  0  0  0  0
    8.4804    0.6646    0.0000 O   0  0  0  0  0  0  0  0  0  0  0  0
    7.1814    1.4146    0.0000 C   0  0  0  0  0  0  0  0  0  0  0  0
    7.1814    2.9146    0.0000 O   0  0  0  0  0  0  0  0  0  0  0  0
    5.8823    0.6646    0.0000 C   0  0  0  0  0  0  0  0  0  0  0  0
    6.6323   -0.6344    0.0000 O   0  0  0  0  0  0  0  0  0  0  0  0
    4.5832   -0.0854    0.0000 C   0  0  0  0  0  0  0  0  0  0  0  0
    4.5832   -1.5854    0.0000 C   0  0  0  0  0  0  0  0  0  0  0  0
    3.2843   -2.3354    0.0000 C   0  0  0  0  0  0  0  0  0  0  0  0
    1.9852   -1.5854    0.0000 C   0  0  0  0  0  0  0  0  0  0  0  0
    1.9852   -0.0854    0.0000 C   0  0  0  0  0  0  0  0  0  0  0  0
    3.2843    0.6646    0.0000 C   0  0  0  0  0  0  0  0  0  0  0  0
    5.1323    1.9637    0.0000 C   0  0  0  0  0  0  0  0  0  0  0  0
    5.8823    3.2627    0.0000 C   0  0  0  0  0  0  0  0  0  0  0  0
    5.1323    4.5617    0.0000 C   0  0  0  0  0  0  0  0  0  0  0  0
    3.6324    4.5617    0.0000 C   0  0  0  0  0  0  0  0  0  0  0  0
    2.8824    3.2627    0.0000 C   0  0  0  0  0  0  0  0  0  0  0  0
    3.6324    1.9637    0.0000 C   0  0  0  0  0  0  0  0  0  0  0  0
  1  2  1  0  0  0  0
  2  3  1  0  0  0  0
  3  4  1  0  0  0  0
  3  6  1  0  0  0  0
  4  5  1  0  0  0  0
  6  7  1  0  0  0  0
  7  8  1  0  0  0  0
  8  9  1  0  0  0  0
  9 10  2  0  0  0  0
  9 11  1  0  0  0  0
 11 12  1  0  0  0  0
 11 13  1  0  0  0  0
 11 19  1  0  0  0  0
 14 13  2  0  0  0  0
 13 18  1  0  0  0  0
 15 14  1  0  0  0  0
 16 15  2  0  0  0  0
 17 16  1  0  0  0  0
 18 17  2  0  0  0  0
 20 19  2  0  0  0  0
 19 24  1  0  0  0  0
 21 20  1  0  0  0  0
 22 21  2  0  0  0  0
 23 22  1  0  0  0  0
 24 23  2  0  0  0  0
M  END
> <Inchi_key>
IVQOFBKHQCTVQV-UHFFFAOYSA-N

> <Source>
Mulliner

> <ID>
HT3496

> <H_MFHB>
0

> <CAS>


> <Cholestasis>


> <Name>


> <Class>
0


$$$$