

  -INDIGO-08031710012D

 36 41  0  0  0  0  0  0  0  0999 V2000
    0.1745    0.2264    0.0000 C   0  0  0  0  0  0  0  0  0  0  0  0
    0.5561   -1.2243    0.0000 C   0  0  0  0  0  0  0  0  0  0  0  0
   -0.5093   -2.2801    0.0000 O   0  0  0  0  0  0  0  0  0  0  0  0
    2.0031   -1.6191    0.0000 O   0  0  0  0  0  0  0  0  0  0  0  0
    2.3850   -3.0698    0.0000 C   0  0  0  0  0  0  0  0  0  0  0  0
    3.8320   -3.4646    0.0000 C   0  0  0  0  0  0  0  0  0  0  0  0
    4.8975   -2.4088    0.0000 O   0  0  0  0  0  0  0  0  0  0  0  0
    4.2136   -4.9151    0.0000 C   0  0  0  0  0  0  0  0  0  0  0  0
    2.8462   -4.2989    0.0000 O   0  0  0  0  0  0  0  0  0  0  0  0
    1.8374   -5.4090    0.0000 C   0  0  0  0  0  0  0  0  0  0  0  0
    1.0707   -4.1198    0.0000 C   0  0  0  0  0  0  0  0  0  0  0  0
   -0.3926   -4.4505    0.0000 C   0  0  0  0  0  0  0  0  0  0  0  0
   -0.5300   -5.9442    0.0000 C   0  0  0  0  0  0  0  0  0  0  0  0
    0.8481   -6.5366    0.0000 C   0  0  0  0  0  0  0  0  0  0  0  0
    2.5814   -6.7115    0.0000 O   0  0  0  0  0  0  0  0  0  0  0  0
    4.0500   -6.4063    0.0000 C   0  0  0  0  0  0  0  0  0  0  0  0
    5.4174   -7.0226    0.0000 C   0  0  0  0  0  0  0  0  0  0  0  0
    6.4262   -5.9124    0.0000 C   0  0  0  0  0  0  0  0  0  0  0  0
    7.9262   -5.9193    0.0000 C   0  0  0  0  0  0  0  0  0  0  0  0
    8.6704   -7.2218    0.0000 C   0  0  0  0  0  0  0  0  0  0  0  0
   10.1703   -7.2286    0.0000 C   0  0  0  0  0  0  0  0  0  0  0  0
   10.9261   -5.9330    0.0000 C   0  0  0  0  0  0  0  0  0  0  0  0
   12.4261   -5.9399    0.0000 C   0  0  0  0  0  0  0  0  0  0  0  0
   13.1821   -4.6442    0.0000 C   0  0  0  0  0  0  0  0  0  0  0  0
   14.6821   -4.6511    0.0000 O   0  0  0  0  0  0  0  0  0  0  0  0
   12.4382   -3.3418    0.0000 C   0  0  0  0  0  0  0  0  0  0  0  0
   10.9382   -3.3350    0.0000 C   0  0  0  0  0  0  0  0  0  0  0  0
   10.1822   -4.6306    0.0000 C   0  0  0  0  0  0  0  0  0  0  0  0
    9.4380   -3.3281    0.0000 C   0  0  0  0  0  0  0  0  0  0  0  0
    8.6822   -4.6237    0.0000 C   0  0  0  0  0  0  0  0  0  0  0  0
    7.1822   -4.6169    0.0000 F   0  0  0  0  0  0  0  0  0  0  0  0
    7.9380   -3.3213    0.0000 C   0  0  0  0  0  0  0  0  0  0  0  0
    8.6941   -2.0257    0.0000 O   0  0  0  0  0  0  0  0  0  0  0  0
    6.4381   -3.3144    0.0000 C   0  0  0  0  0  0  0  0  0  0  0  0
    5.6823   -4.6101    0.0000 C   0  0  0  0  0  0  0  0  0  0  0  0
    5.3007   -3.1594    0.0000 C   0  0  0  0  0  0  0  0  0  0  0  0
  1  2  1  0  0  0  0
  2  3  2  0  0  0  0
  2  4  1  0  0  0  0
  4  5  1  0  0  0  0
  5  6  1  0  0  0  0
  6  7  2  0  0  0  0
  6  8  1  0  0  0  0
  9  8  1  0  0  0  0
 16  8  1  0  0  0  0
  8 35  1  0  0  0  0
 10  9  1  0  0  0  0
 11 10  1  0  0  0  0
 10 14  1  0  0  0  0
 15 10  1  0  0  0  0
 12 11  1  0  0  0  0
 13 12  1  0  0  0  0
 14 13  1  0  0  0  0
 16 15  1  0  0  0  0
 17 16  1  0  0  0  0
 18 17  1  0  0  0  0
 19 18  1  0  0  0  0
 18 35  1  0  0  0  0
 20 19  1  0  0  0  0
 19 30  1  0  0  0  0
 21 20  1  0  0  0  0
 22 21  1  0  0  0  0
 23 22  2  0  0  0  0
 22 28  1  0  0  0  0
 24 23  1  0  0  0  0
 24 25  2  0  0  0  0
 26 24  1  0  0  0  0
 27 26  2  0  0  0  0
 28 27  1  0  0  0  0
 28 29  1  0  0  0  0
 30 28  1  0  0  0  0
 30 31  1  0  0  0  0
 32 30  1  0  0  0  0
 32 33  1  0  0  0  0
 34 32  1  0  0  0  0
 35 34  1  0  0  0  0
 35 36  1  0  0  0  0
M  END
> <Inchi_key>
ILKJAFIWWBXGDU-UHFFFAOYSA-N

> <Source>
Mulliner , Kotsampasakou

> <ID>
EK0024;HT0126

> <H_MFHB>
0

> <CAS>


> <Cholestasis>
0

> <Name>
amcinonide

> <Class>
0


$$$$