
  -INDIGO-08031710012D

 14 14  0  0  0  0  0  0  0  0999 V2000
   10.6853    0.2917    0.0000 C   0  0  0  0  0  0  0  0  0  0  0  0
    9.3862    1.0417    0.0000 C   0  0  0  0  0  0  0  0  0  0  0  0
    9.3862    2.5417    0.0000 C   0  0  0  0  0  0  0  0  0  0  0  0
    8.0872    0.2917    0.0000 N   0  0  0  0  0  0  0  0  0  0  0  0
    6.7881    1.0417    0.0000 C   0  0  0  0  0  0  0  0  0  0  0  0
    6.7881    2.5417    0.0000 C   0  0  0  0  0  0  0  0  0  0  0  0
    5.4891    0.2917    0.0000 C   0  0  0  0  0  0  0  0  0  0  0  0
    4.1902    1.0417    0.0000 C   0  0  0  0  0  0  0  0  0  0  0  0
    2.8911    0.2917    0.0000 C   0  0  0  0  0  0  0  0  0  0  0  0
    1.5921    1.0417    0.0000 C   0  0  0  0  0  0  0  0  0  0  0  0
    1.5921    2.5417    0.0000 C   0  0  0  0  0  0  0  0  0  0  0  0
    0.2930    3.2917    0.0000 I   0  0  0  0  0  0  0  0  0  0  0  0
    2.8911    3.2917    0.0000 C   0  0  0  0  0  0  0  0  0  0  0  0
    4.1902    2.5417    0.0000 C   0  0  0  0  0  0  0  0  0  0  0  0
  1  2  1  0  0  0  0
  2  3  1  0  0  0  0
  2  4  1  0  0  0  0
  4  5  1  0  0  0  0
  5  6  1  0  0  0  0
  5  7  1  0  0  0  0
  7  8  1  0  0  0  0
  9  8  2  0  0  0  0
  8 14  1  0  0  0  0
 10  9  1  0  0  0  0
 11 10  2  0  0  0  0
 11 12  1  0  0  0  0
 13 11  1  0  0  0  0
 14 13  2  0  0  0  0
M  END
> <Inchi_key>
ISEHJSHTIVKELA-UHFFFAOYSA-N

> <Source>
Mulliner

> <ID>
HT1107

> <H_MFHB>
0

> <CAS>


> <Cholestasis>


> <Name>
iofetamine hydrochloride i-123

> <Class>
0

$$$$