
  -INDIGO-08031710012D

 34 37  0  0  0  0  0  0  0  0999 V2000
   15.3245    4.1063    0.0000 C   0  0  0  0  0  0  0  0  0  0  0  0
   14.0256    3.3562    0.0000 C   0  0  0  0  0  0  0  0  0  0  0  0
   12.7264    4.1063    0.0000 O   0  0  0  0  0  0  0  0  0  0  0  0
   11.4275    3.3562    0.0000 C   0  0  0  0  0  0  0  0  0  0  0  0
   11.4275    1.8562    0.0000 O   0  0  0  0  0  0  0  0  0  0  0  0
   10.1283    4.1063    0.0000 C   0  0  0  0  0  0  0  0  0  0  0  0
    9.3785    5.4052    0.0000 C   0  0  0  0  0  0  0  0  0  0  0  0
    7.8785    5.4052    0.0000 C   0  0  0  0  0  0  0  0  0  0  0  0
    7.1284    4.1063    0.0000 N   0  0  0  0  0  0  0  0  0  0  0  0
    5.6285    4.1063    0.0000 C   0  0  0  0  0  0  0  0  0  0  0  0
    4.8784    5.4052    0.0000 C   0  0  0  0  0  0  0  0  0  0  0  0
    3.3785    5.4052    0.0000 C   0  0  0  0  0  0  0  0  0  0  0  0
    3.3785    3.9052    0.0000 C   0  0  0  0  0  0  0  0  0  0  0  0
    3.3785    2.4052    0.0000 N   0  0  0  0  0  0  0  0  0  0  0  0
    1.8785    5.4052    0.0000 C   0  0  0  0  0  0  0  0  0  0  0  0
    1.1284    4.1063    0.0000 C   0  0  0  0  0  0  0  0  0  0  0  0
   -0.3715    4.1063    0.0000 C   0  0  0  0  0  0  0  0  0  0  0  0
   -1.1216    5.4052    0.0000 C   0  0  0  0  0  0  0  0  0  0  0  0
   -0.3715    6.7043    0.0000 C   0  0  0  0  0  0  0  0  0  0  0  0
    1.1284    6.7043    0.0000 C   0  0  0  0  0  0  0  0  0  0  0  0
    3.3785    6.9052    0.0000 C   0  0  0  0  0  0  0  0  0  0  0  0
    2.0793    7.6551    0.0000 C   0  0  0  0  0  0  0  0  0  0  0  0
    2.0793    9.1551    0.0000 C   0  0  0  0  0  0  0  0  0  0  0  0
    3.3785    9.9052    0.0000 C   0  0  0  0  0  0  0  0  0  0  0  0
    4.6774    9.1551    0.0000 C   0  0  0  0  0  0  0  0  0  0  0  0
    4.6774    7.6551    0.0000 C   0  0  0  0  0  0  0  0  0  0  0  0
    7.8785    2.8072    0.0000 C   0  0  0  0  0  0  0  0  0  0  0  0
    9.3785    2.8072    0.0000 C   0  0  0  0  0  0  0  0  0  0  0  0
   11.0927    5.2552    0.0000 C   0  0  0  0  0  0  0  0  0  0  0  0
   10.1283    6.4043    0.0000 C   0  0  0  0  0  0  0  0  0  0  0  0
   10.6415    7.8139    0.0000 C   0  0  0  0  0  0  0  0  0  0  0  0
   12.1186    8.0743    0.0000 C   0  0  0  0  0  0  0  0  0  0  0  0
   13.0828    6.9253    0.0000 C   0  0  0  0  0  0  0  0  0  0  0  0
   12.5698    5.5157    0.0000 C   0  0  0  0  0  0  0  0  0  0  0  0
  1  2  1  0  0  0  0
  2  3  1  0  0  0  0
  3  4  1  0  0  0  0
  4  5  2  0  0  0  0
  4  6  1  0  0  0  0
  7  6  1  0  0  0  0
  6 28  1  0  0  0  0
  6 29  1  0  0  0  0
  8  7  1  0  0  0  0
  9  8  1  0  0  0  0
  9 10  1  0  0  0  0
 27  9  1  0  0  0  0
 10 11  1  0  0  0  0
 11 12  1  0  0  0  0
 12 13  1  0  0  0  0
 12 15  1  0  0  0  0
 12 21  1  0  0  0  0
 13 14  3  0  0  0  0
 16 15  2  0  0  0  0
 15 20  1  0  0  0  0
 17 16  1  0  0  0  0
 18 17  2  0  0  0  0
 19 18  1  0  0  0  0
 20 19  2  0  0  0  0
 22 21  2  0  0  0  0
 21 26  1  0  0  0  0
 23 22  1  0  0  0  0
 24 23  2  0  0  0  0
 25 24  1  0  0  0  0
 26 25  2  0  0  0  0
 28 27  1  0  0  0  0
 30 29  2  0  0  0  0
 29 34  1  0  0  0  0
 31 30  1  0  0  0  0
 32 31  2  0  0  0  0
 33 32  1  0  0  0  0
 34 33  2  0  0  0  0
M  END
> <Inchi_key>
HYPPXZBJBPSRLK-UHFFFAOYSA-N

> <Source>
Mulliner , Kotsampasakou

> <ID>
EK0167;HT0688

> <H_MFHB>
0

> <CAS>


> <Cholestasis>
0

> <Name>
diphenoxylate

> <Class>
0

$$$$