

  -INDIGO-08031710012D

 15 18  0  0  0  0  0  0  0  0999 V2000
    3.5490    3.5490    0.0000 C   0  0  0  0  0  0  0  0  0  0  0  0
    5.0490    3.5490    0.0000 C   0  0  0  0  0  0  0  0  0  0  0  0
    4.2990    2.2499    0.0000 N   0  0  0  0  0  0  0  0  0  0  0  0
    4.2990    0.7500    0.0000 C   0  0  0  0  0  0  0  0  0  0  0  0
    2.9999    0.0001    0.0000 N   0  0  0  0  0  0  0  0  0  0  0  0
    2.9999   -1.5000    0.0000 C   0  0  0  0  0  0  0  0  0  0  0  0
    4.2990   -2.2499    0.0000 N   0  0  0  0  0  0  0  0  0  0  0  0
    5.5982   -1.5000    0.0000 C   0  0  0  0  0  0  0  0  0  0  0  0
    5.5982    0.0001    0.0000 N   0  0  0  0  0  0  0  0  0  0  0  0
    6.8971   -2.2499    0.0000 N   0  0  0  0  0  0  0  0  0  0  0  0
    7.6471   -3.5490    0.0000 C   0  0  0  0  0  0  0  0  0  0  0  0
    8.3971   -2.2499    0.0000 C   0  0  0  0  0  0  0  0  0  0  0  0
    1.7010   -2.2499    0.0000 N   0  0  0  0  0  0  0  0  0  0  0  0
    0.2010   -2.2499    0.0000 C   0  0  0  0  0  0  0  0  0  0  0  0
    0.9510   -3.5490    0.0000 C   0  0  0  0  0  0  0  0  0  0  0  0
  2  1  1  0  0  0  0
  1  3  1  0  0  0  0
  3  2  1  0  0  0  0
  3  4  1  0  0  0  0
  5  4  2  0  0  0  0
  4  9  1  0  0  0  0
  6  5  1  0  0  0  0
  7  6  2  0  0  0  0
  6 13  1  0  0  0  0
  8  7  1  0  0  0  0
  9  8  2  0  0  0  0
  8 10  1  0  0  0  0
 11 10  1  0  0  0  0
 10 12  1  0  0  0  0
 12 11  1  0  0  0  0
 14 13  1  0  0  0  0
 13 15  1  0  0  0  0
 15 14  1  0  0  0  0
M  END
> <Inchi_key>
IUCJMVBFZDHPDX-UHFFFAOYSA-N

> <Source>
Mulliner

> <ID>
HT2874

> <H_MFHB>
0

> <CAS>


> <Cholestasis>


> <Name>


> <Class>
0


$$$$