

  -INDIGO-08031709442D

 19 20  0  0  0  0  0  0  0  0999 V2000
   -4.8383    5.8090    0.0000 O   0  0  0  0  0  0  0  0  0  0  0  0
   -6.1374    6.5589    0.0000 C   0  0  0  0  0  0  0  0  0  0  0  0
   -4.8383    4.3090    0.0000 C   0  0  0  0  0  0  0  0  0  0  0  0
   -3.5392    3.5589    0.0000 C   0  0  0  0  0  0  0  0  0  0  0  0
   -3.5392    2.0589    0.0000 C   0  0  0  0  0  0  0  0  0  0  0  0
   -2.2403    1.3090    0.0000 N   0  0  0  0  0  0  0  0  0  0  0  0
   -0.9410    2.0589    0.0000 C   0  0  0  0  0  0  0  0  0  0  0  0
    0.3579    1.3090    0.0000 C   0  0  0  0  0  0  0  0  0  0  0  0
    1.6568    2.0589    0.0000 C   0  0  0  0  0  0  0  0  0  0  0  0
    2.9561    1.3090    0.0000 C   0  0  0  0  0  0  0  0  0  0  0  0
    4.2550    2.0589    0.0000 N   0  0  0  0  0  0  0  0  0  0  0  0
   -0.9410    3.5589    0.0000 C   0  0  0  0  0  0  0  0  0  0  0  0
   -4.8383    1.3090    0.0000 C   0  0  0  0  0  0  0  0  0  0  0  0
   -4.8383   -0.1910    0.0000 N   0  0  0  0  0  0  0  0  0  0  0  0
   -6.1374   -0.9411    0.0000 C   0  0  0  0  0  0  0  0  0  0  0  0
   -7.4363   -0.1910    0.0000 C   0  0  0  0  0  0  0  0  0  0  0  0
   -7.4363    1.3090    0.0000 C   0  0  0  0  0  0  0  0  0  0  0  0
   -6.1374    2.0589    0.0000 C   0  0  0  0  0  0  0  0  0  0  0  0
   -6.1374    3.5589    0.0000 C   0  0  0  0  0  0  0  0  0  0  0  0
  1  2  1  0  0  0  0
  1  3  1  0  0  0  0
  4  3  2  0  0  0  0
  3 19  1  0  0  0  0
  5  4  1  0  0  0  0
  5  6  1  0  0  0  0
 13  5  2  0  0  0  0
  6  7  1  0  0  0  0
  7  8  1  0  0  0  0
  7 12  1  0  0  0  0
  8  9  1  0  0  0  0
  9 10  1  0  0  0  0
 10 11  1  0  0  0  0
 14 13  1  0  0  0  0
 13 18  1  0  0  0  0
 15 14  2  0  0  0  0
 16 15  1  0  0  0  0
 17 16  2  0  0  0  0
 18 17  1  0  0  0  0
 19 18  2  0  0  0  0
M  END
> <Inchi_key>
INDBQLZJXZLFIT-UHFFFAOYSA-N

> <Source>
Kotsampasakou

> <ID>
EK0439

> <H_MFHB>


> <CAS>


> <Cholestasis>
0

> <Name>
primaquine

> <Class>
0


$$$$