

  -INDIGO-08031709442D

 30 30  0  0  0  0  0  0  0  0999 V2000
    0.6495   -0.1740    0.0000 O   0  0  0  0  0  0  0  0  0  0  0  0
   -0.6495    0.5760    0.0000 C   0  0  0  0  0  0  0  0  0  0  0  0
   -0.6495    2.0759    0.0000 C   0  0  0  0  0  0  0  0  0  0  0  0
   -1.9485    2.8261    0.0000 N   0  0  0  0  0  0  0  0  0  0  0  0
   -3.2475    2.0759    0.0000 C   0  0  0  0  0  0  0  0  0  0  0  0
   -4.5467    2.8261    0.0000 C   0  0  0  0  0  0  0  0  0  0  0  0
   -1.9485    4.3260    0.0000 C   0  0  0  0  0  0  0  0  0  0  0  0
   -0.6495    5.0760    0.0000 C   0  0  0  0  0  0  0  0  0  0  0  0
    0.6495   -1.6739    0.0000 C   0  0  0  0  0  0  0  0  0  0  0  0
   -0.6495   -2.4241    0.0000 C   0  0  0  0  0  0  0  0  0  0  0  0
   -1.9485   -1.6739    0.0000 O   0  0  0  0  0  0  0  0  0  0  0  0
   -3.2475   -2.4241    0.0000 C   0  0  0  0  0  0  0  0  0  0  0  0
   -4.5467   -1.6739    0.0000 C   0  0  0  0  0  0  0  0  0  0  0  0
   -5.8457   -2.4241    0.0000 N   0  0  0  0  0  0  0  0  0  0  0  0
   -7.1447   -1.6739    0.0000 C   0  0  0  0  0  0  0  0  0  0  0  0
   -8.4437   -2.4241    0.0000 C   0  0  0  0  0  0  0  0  0  0  0  0
   -5.8457   -3.9240    0.0000 C   0  0  0  0  0  0  0  0  0  0  0  0
   -7.1447   -4.6740    0.0000 C   0  0  0  0  0  0  0  0  0  0  0  0
   -0.6495   -3.9240    0.0000 C   0  0  0  0  0  0  0  0  0  0  0  0
    0.6495   -4.6740    0.0000 C   0  0  0  0  0  0  0  0  0  0  0  0
    1.9485   -3.9240    0.0000 C   0  0  0  0  0  0  0  0  0  0  0  0
    1.9485   -2.4241    0.0000 C   0  0  0  0  0  0  0  0  0  0  0  0
    3.2475   -1.6739    0.0000 O   0  0  0  0  0  0  0  0  0  0  0  0
    4.5467   -2.4241    0.0000 C   0  0  0  0  0  0  0  0  0  0  0  0
    5.8457   -1.6739    0.0000 C   0  0  0  0  0  0  0  0  0  0  0  0
    7.1447   -2.4241    0.0000 N   0  0  0  0  0  0  0  0  0  0  0  0
    7.1447   -3.9240    0.0000 C   0  0  0  0  0  0  0  0  0  0  0  0
    8.4437   -4.6740    0.0000 C   0  0  0  0  0  0  0  0  0  0  0  0
    8.4437   -1.6739    0.0000 C   0  0  0  0  0  0  0  0  0  0  0  0
    8.4437   -0.1740    0.0000 C   0  0  0  0  0  0  0  0  0  0  0  0
  1  2  1  0  0  0  0
  1  9  1  0  0  0  0
  2  3  1  0  0  0  0
  3  4  1  0  0  0  0
  4  5  1  0  0  0  0
  4  7  1  0  0  0  0
  5  6  1  0  0  0  0
  7  8  1  0  0  0  0
 10  9  2  0  0  0  0
  9 22  1  0  0  0  0
 10 11  1  0  0  0  0
 19 10  1  0  0  0  0
 11 12  1  0  0  0  0
 12 13  1  0  0  0  0
 13 14  1  0  0  0  0
 14 15  1  0  0  0  0
 14 17  1  0  0  0  0
 15 16  1  0  0  0  0
 17 18  1  0  0  0  0
 20 19  2  0  0  0  0
 21 20  1  0  0  0  0
 22 21  2  0  0  0  0
 22 23  1  0  0  0  0
 23 24  1  0  0  0  0
 24 25  1  0  0  0  0
 25 26  1  0  0  0  0
 26 27  1  0  0  0  0
 26 29  1  0  0  0  0
 27 28  1  0  0  0  0
 29 30  1  0  0  0  0
M  END
> <Inchi_key>
ICLWTJIMXVISSR-UHFFFAOYSA-N

> <Source>
Kotsampasakou

> <ID>
EK0238

> <H_MFHB>


> <CAS>


> <Cholestasis>
0

> <Name>
gallamine triethiodide

> <Class>
0


$$$$