

  -INDIGO-08031710012D

 19 18  0  0  0  0  0  0  0  0999 V2000
    3.4020    8.5981    0.0000 O   0  0  0  0  0  0  0  0  0  0  0  0
    3.4020    7.0981    0.0000 N   0  0  0  0  0  0  0  0  0  0  0  0
    2.1029    6.3481    0.0000 O   0  0  0  0  0  0  0  0  0  0  0  0
    4.7010    6.3481    0.0000 O   0  0  0  0  0  0  0  0  0  0  0  0
    4.7010    4.8481    0.0000 C   0  0  0  0  0  0  0  0  0  0  0  0
    6.0001    4.0981    0.0000 C   0  0  0  0  0  0  0  0  0  0  0  0
    6.0001    2.5981    0.0000 N   0  0  0  0  0  0  0  0  0  0  0  0
    4.7010    1.8481    0.0000 C   0  0  0  0  0  0  0  0  0  0  0  0
    4.7010    0.3481    0.0000 C   0  0  0  0  0  0  0  0  0  0  0  0
    3.4020   -0.4019    0.0000 O   0  0  0  0  0  0  0  0  0  0  0  0
    3.4020   -1.9019    0.0000 N   0  0  0  0  0  0  0  0  0  0  0  0
    2.1029   -2.6519    0.0000 O   0  0  0  0  0  0  0  0  0  0  0  0
    4.7010   -2.6519    0.0000 O   0  0  0  0  0  0  0  0  0  0  0  0
    7.2990    1.8481    0.0000 C   0  0  0  0  0  0  0  0  0  0  0  0
    8.5980    2.5981    0.0000 C   0  0  0  0  0  0  0  0  0  0  0  0
    9.8971    1.8481    0.0000 O   0  0  0  0  0  0  0  0  0  0  0  0
   11.1961    2.5981    0.0000 N   0  0  0  0  0  0  0  0  0  0  0  0
   12.4952    1.8481    0.0000 O   0  0  0  0  0  0  0  0  0  0  0  0
   11.1961    4.0981    0.0000 O   0  0  0  0  0  0  0  0  0  0  0  0
  1  2  1  0  0  0  0
  2  3  2  0  0  0  0
  2  4  1  0  0  0  0
  4  5  1  0  0  0  0
  5  6  1  0  0  0  0
  6  7  1  0  0  0  0
  7  8  1  0  0  0  0
  7 14  1  0  0  0  0
  8  9  1  0  0  0  0
  9 10  1  0  0  0  0
 10 11  1  0  0  0  0
 11 12  2  0  0  0  0
 11 13  1  0  0  0  0
 14 15  1  0  0  0  0
 15 16  1  0  0  0  0
 16 17  1  0  0  0  0
 17 18  2  0  0  0  0
 17 19  1  0  0  0  0
M  CHG  6   1  -1   2   1  11   1  13  -1  17   1  19  -1
M  END
> <Inchi_key>
HWKQNAWCHQMZHK-UHFFFAOYSA-N

> <Source>
Mulliner

> <ID>
HT3258

> <H_MFHB>
0

> <CAS>


> <Cholestasis>


> <Name>


> <Class>
0


$$$$