
  -INDIGO-08031710012D

 18 18  0  0  0  0  0  0  0  0999 V2000
   -0.4582   -0.7939    0.0000 C   0  0  0  0  0  0  0  0  0  0  0  0
    0.2918   -2.0929    0.0000 C   0  0  0  0  0  0  0  0  0  0  0  0
    1.7916   -2.0929    0.0000 N   0  0  0  0  0  0  0  0  0  0  0  0
    2.5417   -0.7939    0.0000 C   0  0  0  0  0  0  0  0  0  0  0  0
    1.7916    0.5052    0.0000 N   0  0  0  0  0  0  0  0  0  0  0  0
    2.5417    1.8042    0.0000 C   0  0  0  0  0  0  0  0  0  0  0  0
    3.2917    3.1033    0.0000 N   0  0  0  0  0  0  0  0  0  0  0  0
    4.0417   -0.7939    0.0000 N   0  0  0  0  0  0  0  0  0  0  0  0
    4.7917   -2.0929    0.0000 C   0  0  0  0  0  0  0  0  0  0  0  0
    4.0417   -3.3919    0.0000 C   0  0  0  0  0  0  0  0  0  0  0  0
    4.7917   -4.6910    0.0000 C   0  0  0  0  0  0  0  0  0  0  0  0
    6.2917   -4.6910    0.0000 N   0  0  0  0  0  0  0  0  0  0  0  0
    7.0417   -3.3919    0.0000 C   0  0  0  0  0  0  0  0  0  0  0  0
    6.2917   -2.0929    0.0000 C   0  0  0  0  0  0  0  0  0  0  0  0
   -0.4582   -3.3919    0.0000 C   0  0  0  0  0  0  0  0  0  0  0  0
    0.8406   -4.1419    0.0000 C   0  0  0  0  0  0  0  0  0  0  0  0
   -1.7574   -2.6419    0.0000 C   0  0  0  0  0  0  0  0  0  0  0  0
   -1.2083   -4.6910    0.0000 C   0  0  0  0  0  0  0  0  0  0  0  0
  1  2  1  0  0  0  0
  2  3  1  0  0  0  0
  2 15  1  0  0  0  0
  3  4  2  0  0  0  0
  4  5  1  0  0  0  0
  4  8  1  0  0  0  0
  5  6  1  0  0  0  0
  6  7  3  0  0  0  0
  8  9  1  0  0  0  0
 10  9  2  0  0  0  0
  9 14  1  0  0  0  0
 11 10  1  0  0  0  0
 12 11  2  0  0  0  0
 13 12  1  0  0  0  0
 14 13  2  0  0  0  0
 15 16  1  0  0  0  0
 15 17  1  0  0  0  0
 15 18  1  0  0  0  0
M  END
> <Inchi_key>
IVVNZDGDKPTYHK-UHFFFAOYSA-N

> <Source>
Mulliner , Kotsampasakou

> <ID>
EK0426;HT1675

> <H_MFHB>
0

> <CAS>
85371-64-8

> <Cholestasis>
0

> <Name>
pinacidil

> <Class>
0

$$$$