

  -INDIGO-08031710012D

 15 15  0  0  0  0  0  0  0  0999 V2000
   10.2462    2.7454    0.0000 N   0  0  0  0  0  0  0  0  0  0  0  0
    8.9470    1.9954    0.0000 C   0  0  0  0  0  0  0  0  0  0  0  0
    8.9470    0.4954    0.0000 N   0  0  0  0  0  0  0  0  0  0  0  0
    7.6482    2.7454    0.0000 N   0  0  0  0  0  0  0  0  0  0  0  0
    6.3490    1.9954    0.0000 C   0  0  0  0  0  0  0  0  0  0  0  0
    6.3490    0.4954    0.0000 O   0  0  0  0  0  0  0  0  0  0  0  0
    5.0500    2.7454    0.0000 C   0  0  0  0  0  0  0  0  0  0  0  0
    3.7509    1.9954    0.0000 C   0  0  0  0  0  0  0  0  0  0  0  0
    2.4519    2.7454    0.0000 C   0  0  0  0  0  0  0  0  0  0  0  0
    2.4519    4.2454    0.0000 Cl  0  0  0  0  0  0  0  0  0  0  0  0
    1.1529    1.9954    0.0000 C   0  0  0  0  0  0  0  0  0  0  0  0
    1.1529    0.4954    0.0000 C   0  0  0  0  0  0  0  0  0  0  0  0
    2.4519   -0.2546    0.0000 C   0  0  0  0  0  0  0  0  0  0  0  0
    3.7509    0.4954    0.0000 C   0  0  0  0  0  0  0  0  0  0  0  0
    5.0500   -0.2546    0.0000 Cl  0  0  0  0  0  0  0  0  0  0  0  0
  1  2  1  0  0  0  0
  2  3  2  0  0  0  0
  2  4  1  0  0  0  0
  4  5  1  0  0  0  0
  5  6  2  0  0  0  0
  5  7  1  0  0  0  0
  7  8  1  0  0  0  0
  9  8  2  0  0  0  0
  8 14  1  0  0  0  0
  9 10  1  0  0  0  0
 11  9  1  0  0  0  0
 12 11  2  0  0  0  0
 13 12  1  0  0  0  0
 14 13  2  0  0  0  0
 14 15  1  0  0  0  0
M  END
> <Inchi_key>
INJOMKTZOLKMBF-UHFFFAOYSA-N

> <Source>
Mulliner , Kotsampasakou

> <ID>
EK0253;HT1010

> <H_MFHB>
0

> <CAS>
29110-48-3

> <Cholestasis>
0

> <Name>
guanfacine hydrochloride;guanfacine

> <Class>
0


$$$$