
  -INDIGO-08031710012D

 15 16  0  0  0  0  0  0  0  0999 V2000
    0.2240   -2.4387    0.0000 N   0  0  0  0  0  0  0  0  0  0  0  0
    1.5229   -1.6887    0.0000 C   0  0  0  0  0  0  0  0  0  0  0  0
    1.5229   -0.1887    0.0000 C   0  0  0  0  0  0  0  0  0  0  0  0
    2.8222    0.5613    0.0000 C   0  0  0  0  0  0  0  0  0  0  0  0
    2.8222    2.0613    0.0000 Cl  0  0  0  0  0  0  0  0  0  0  0  0
    4.1211   -0.1887    0.0000 C   0  0  0  0  0  0  0  0  0  0  0  0
    5.4202    0.5613    0.0000 N   0  0  0  0  0  0  0  0  0  0  0  0
    6.7191   -0.1887    0.0000 C   0  0  0  0  0  0  0  0  0  0  0  0
    8.0896    0.4214    0.0000 N   0  0  0  0  0  0  0  0  0  0  0  0
    9.0932   -0.6933    0.0000 C   0  0  0  0  0  0  0  0  0  0  0  0
    8.3432   -1.9923    0.0000 C   0  0  0  0  0  0  0  0  0  0  0  0
    6.8760   -1.6805    0.0000 N   0  0  0  0  0  0  0  0  0  0  0  0
    4.1211   -1.6887    0.0000 C   0  0  0  0  0  0  0  0  0  0  0  0
    5.4202   -2.4387    0.0000 Cl  0  0  0  0  0  0  0  0  0  0  0  0
    2.8222   -2.4387    0.0000 C   0  0  0  0  0  0  0  0  0  0  0  0
  1  2  1  0  0  0  0
  3  2  2  0  0  0  0
  2 15  1  0  0  0  0
  4  3  1  0  0  0  0
  4  5  1  0  0  0  0
  6  4  2  0  0  0  0
  6  7  1  0  0  0  0
 13  6  1  0  0  0  0
  7  8  1  0  0  0  0
  9  8  2  0  0  0  0
  8 12  1  0  0  0  0
 10  9  1  0  0  0  0
 11 10  1  0  0  0  0
 12 11  1  0  0  0  0
 13 14  1  0  0  0  0
 15 13  2  0  0  0  0
M  END
> <Inchi_key>
IEJXVRYNEISIKR-UHFFFAOYSA-N

> <Source>
Mulliner , Kotsampasakou

> <ID>
EK0038;HT0172

> <H_MFHB>
0

> <CAS>


> <Cholestasis>
0

> <Name>
apraclonidine hydrochloride;apraclonidine

> <Class>
0

$$$$