

  -INDIGO-08031710012D

 31 34  0  0  0  0  0  0  0  0999 V2000
    8.6184    3.0083    0.0000 C   0  0  0  0  0  0  0  0  0  0  0  0
    7.3407    2.2228    0.0000 C   0  0  0  0  0  0  0  0  0  0  0  0
    5.9539    2.7950    0.0000 C   0  0  0  0  0  0  0  0  0  0  0  0
    4.9815    1.6530    0.0000 C   0  0  0  0  0  0  0  0  0  0  0  0
    3.4821    1.6117    0.0000 C   0  0  0  0  0  0  0  0  0  0  0  0
    2.6965    2.8896    0.0000 C   0  0  0  0  0  0  0  0  0  0  0  0
    1.1971    2.8483    0.0000 C   0  0  0  0  0  0  0  0  0  0  0  0
    0.4115    4.1262    0.0000 F   0  0  0  0  0  0  0  0  0  0  0  0
    0.4831    1.5291    0.0000 C   0  0  0  0  0  0  0  0  0  0  0  0
   -1.0162    1.4877    0.0000 C   0  0  0  0  0  0  0  0  0  0  0  0
   -1.7302    0.1685    0.0000 C   0  0  0  0  0  0  0  0  0  0  0  0
   -3.2296    0.1272    0.0000 O   0  0  0  0  0  0  0  0  0  0  0  0
   -0.9446   -1.1093    0.0000 C   0  0  0  0  0  0  0  0  0  0  0  0
    0.5547   -1.0680    0.0000 C   0  0  0  0  0  0  0  0  0  0  0  0
    1.2685    0.2512    0.0000 C   0  0  0  0  0  0  0  0  0  0  0  0
    2.0541   -1.0268    0.0000 C   0  0  0  0  0  0  0  0  0  0  0  0
    2.7681    0.2925    0.0000 C   0  0  0  0  0  0  0  0  0  0  0  0
    3.5537   -0.9854    0.0000 C   0  0  0  0  0  0  0  0  0  0  0  0
    2.8397   -2.3046    0.0000 O   0  0  0  0  0  0  0  0  0  0  0  0
    5.0531   -0.9441    0.0000 C   0  0  0  0  0  0  0  0  0  0  0  0
    5.7668    0.3751    0.0000 C   0  0  0  0  0  0  0  0  0  0  0  0
    6.6608   -0.8294    0.0000 C   0  0  0  0  0  0  0  0  0  0  0  0
    7.2250    0.7273    0.0000 C   0  0  0  0  0  0  0  0  0  0  0  0
    7.7522   -0.6771    0.0000 O   0  0  0  0  0  0  0  0  0  0  0  0
    8.7123    0.5335    0.0000 C   0  0  0  0  0  0  0  0  0  0  0  0
    9.6240    1.7248    0.0000 O   0  0  0  0  0  0  0  0  0  0  0  0
    9.2883   -0.8516    0.0000 C   0  0  0  0  0  0  0  0  0  0  0  0
   10.7759   -1.0452    0.0000 O   0  0  0  0  0  0  0  0  0  0  0  0
   11.3516   -2.4303    0.0000 C   0  0  0  0  0  0  0  0  0  0  0  0
   10.4402   -3.6215    0.0000 O   0  0  0  0  0  0  0  0  0  0  0  0
   12.8392   -2.6241    0.0000 C   0  0  0  0  0  0  0  0  0  0  0  0
  1  2  1  0  0  0  0
  3  2  1  0  0  0  0
  2 23  1  0  0  0  0
  4  3  1  0  0  0  0
  5  4  1  0  0  0  0
  4 21  1  0  0  0  0
  6  5  1  0  0  0  0
  5 17  1  0  0  0  0
  7  6  1  0  0  0  0
  7  8  1  0  0  0  0
  9  7  1  0  0  0  0
 10  9  2  0  0  0  0
  9 15  1  0  0  0  0
 11 10  1  0  0  0  0
 11 12  2  0  0  0  0
 13 11  1  0  0  0  0
 14 13  2  0  0  0  0
 15 14  1  0  0  0  0
 15 16  1  0  0  0  0
 17 15  1  0  0  0  0
 18 17  1  0  0  0  0
 18 19  1  0  0  0  0
 20 18  1  0  0  0  0
 21 20  1  0  0  0  0
 21 22  1  0  0  0  0
 23 21  1  0  0  0  0
 23 24  1  0  0  0  0
 23 25  1  0  0  0  0
 25 26  2  0  0  0  0
 25 27  1  0  0  0  0
 27 28  1  0  0  0  0
 28 29  1  0  0  0  0
 29 30  2  0  0  0  0
 29 31  1  0  0  0  0
M  END
> <Inchi_key>
HYRKAAMZBDSJFJ-UHFFFAOYSA-N

> <Source>
Mulliner

> <ID>
HT1592

> <H_MFHB>
0

> <CAS>


> <Cholestasis>


> <Name>
paramethasone acetate

> <Class>
0


$$$$