

  -INDIGO-08031710012D

 23 25  0  0  0  0  0  0  0  0999 V2000
    0.6281    2.3442    0.0000 C   0  0  0  0  0  0  0  0  0  0  0  0
    1.9272    1.5942    0.0000 C   0  0  0  0  0  0  0  0  0  0  0  0
    1.9272    0.0942    0.0000 N   0  0  0  0  0  0  0  0  0  0  0  0
    0.6281   -0.6558    0.0000 C   0  0  0  0  0  0  0  0  0  0  0  0
    0.6281   -2.1558    0.0000 O   0  0  0  0  0  0  0  0  0  0  0  0
   -0.6709    0.0942    0.0000 C   0  0  0  0  0  0  0  0  0  0  0  0
    3.2262   -0.6558    0.0000 C   0  0  0  0  0  0  0  0  0  0  0  0
    3.2262   -2.1558    0.0000 C   0  0  0  0  0  0  0  0  0  0  0  0
    4.5253   -2.9058    0.0000 C   0  0  0  0  0  0  0  0  0  0  0  0
    5.8243   -2.1558    0.0000 C   0  0  0  0  0  0  0  0  0  0  0  0
    5.8243   -0.6558    0.0000 C   0  0  0  0  0  0  0  0  0  0  0  0
    4.5253    0.0942    0.0000 C   0  0  0  0  0  0  0  0  0  0  0  0
    7.1233    0.0942    0.0000 C   0  0  0  0  0  0  0  0  0  0  0  0
    7.1233    1.5942    0.0000 C   0  0  0  0  0  0  0  0  0  0  0  0
    8.4224    2.3442    0.0000 C   0  0  0  0  0  0  0  0  0  0  0  0
    9.7214    1.5942    0.0000 N   0  0  0  0  0  0  0  0  0  0  0  0
    9.7214    0.0942    0.0000 C   0  0  0  0  0  0  0  0  0  0  0  0
   10.8360   -0.9095    0.0000 C   0  0  0  0  0  0  0  0  0  0  0  0
   10.2261   -2.2798    0.0000 C   0  0  0  0  0  0  0  0  0  0  0  0
    8.7342   -2.1230    0.0000 N   0  0  0  0  0  0  0  0  0  0  0  0
    8.4224   -0.6558    0.0000 N   0  0  0  0  0  0  0  0  0  0  0  0
   12.3032   -0.5976    0.0000 C   0  0  0  0  0  0  0  0  0  0  0  0
   13.7706   -0.2858    0.0000 N   0  0  0  0  0  0  0  0  0  0  0  0
  1  2  1  0  0  0  0
  2  3  1  0  0  0  0
  3  4  1  0  0  0  0
  3  7  1  0  0  0  0
  4  5  2  0  0  0  0
  4  6  1  0  0  0  0
  8  7  2  0  0  0  0
  7 12  1  0  0  0  0
  9  8  1  0  0  0  0
 10  9  2  0  0  0  0
 11 10  1  0  0  0  0
 12 11  2  0  0  0  0
 11 13  1  0  0  0  0
 14 13  2  0  0  0  0
 13 21  1  0  0  0  0
 15 14  1  0  0  0  0
 16 15  2  0  0  0  0
 17 16  1  0  0  0  0
 18 17  2  0  0  0  0
 17 21  1  0  0  0  0
 19 18  1  0  0  0  0
 18 22  1  0  0  0  0
 20 19  2  0  0  0  0
 21 20  1  0  0  0  0
 22 23  3  0  0  0  0
M  END
> <Inchi_key>
HUNXMJYCHXQEGX-UHFFFAOYSA-N

> <Source>
Mulliner , Kotsampasakou

> <ID>
EK0573;HT2208

> <H_MFHB>
0

> <CAS>


> <Cholestasis>
0

> <Name>
zaleplon

> <Class>
0


$$$$