

  -INDIGO-08031710012D

 15 15  0  0  0  0  0  0  0  0999 V2000
   10.2000   -0.3464    0.0000 O   0  0  0  0  0  0  0  0  0  0  0  0
    8.7001   -0.3464    0.0000 C   0  0  0  0  0  0  0  0  0  0  0  0
    7.9500   -1.6454    0.0000 N   0  0  0  0  0  0  0  0  0  0  0  0
    7.9500    0.9526    0.0000 N   0  0  0  0  0  0  0  0  0  0  0  0
    6.4500    0.9526    0.0000 C   0  0  0  0  0  0  0  0  0  0  0  0
    5.7001    2.2517    0.0000 O   0  0  0  0  0  0  0  0  0  0  0  0
    5.7001   -0.3464    0.0000 C   0  0  0  0  0  0  0  0  0  0  0  0
    6.4500   -1.6454    0.0000 C   0  0  0  0  0  0  0  0  0  0  0  0
    4.2000   -0.3464    0.0000 N   0  0  0  0  0  0  0  0  0  0  0  0
    3.4500   -1.6454    0.0000 C   0  0  0  0  0  0  0  0  0  0  0  0
    3.4500    0.9526    0.0000 C   0  0  0  0  0  0  0  0  0  0  0  0
    1.9500   -1.6454    0.0000 C   0  0  0  0  0  0  0  0  0  0  0  0
    1.9500    0.9526    0.0000 C   0  0  0  0  0  0  0  0  0  0  0  0
    1.2000   -2.9445    0.0000 Cl  0  0  0  0  0  0  0  0  0  0  0  0
    1.2000    2.2517    0.0000 Cl  0  0  0  0  0  0  0  0  0  0  0  0
  1  2  2  0  0  0  0
  3  2  1  0  0  0  0
  2  4  1  0  0  0  0
  4  5  1  0  0  0  0
  5  6  2  0  0  0  0
  5  7  1  0  0  0  0
  7  8  2  0  0  0  0
  7  9  1  0  0  0  0
  8  3  1  0  0  0  0
  9 10  1  0  0  0  0
  9 11  1  0  0  0  0
 10 12  1  0  0  0  0
 11 13  1  0  0  0  0
 12 14  1  0  0  0  0
 13 15  1  0  0  0  0
M  END
> <Inchi_key>
IDPUKCWIGUEADI-UHFFFAOYSA-N

> <Source>
Mulliner

> <ID>
HT2153

> <H_MFHB>
0

> <CAS>


> <Cholestasis>


> <Name>
uracil mustard

> <Class>
0


$$$$