
  -INDIGO-08031710012D

 21 21  0  0  0  0  0  0  0  0999 V2000
   -0.4408   -1.6452    0.0000 C   0  0  0  0  0  0  0  0  0  0  0  0
    0.8582   -2.3952    0.0000 O   0  0  0  0  0  0  0  0  0  0  0  0
    2.1572   -1.6452    0.0000 C   0  0  0  0  0  0  0  0  0  0  0  0
    2.1572   -0.1452    0.0000 O   0  0  0  0  0  0  0  0  0  0  0  0
    3.4562   -2.3952    0.0000 C   0  0  0  0  0  0  0  0  0  0  0  0
    4.7553   -1.6452    0.0000 C   0  0  0  0  0  0  0  0  0  0  0  0
    6.0543   -2.3952    0.0000 C   0  0  0  0  0  0  0  0  0  0  0  0
    7.3533   -1.6452    0.0000 C   0  0  0  0  0  0  0  0  0  0  0  0
    8.6523   -2.3952    0.0000 C   0  0  0  0  0  0  0  0  0  0  0  0
    8.6523   -3.8952    0.0000 C   0  0  0  0  0  0  0  0  0  0  0  0
    9.9516   -4.6452    0.0000 O   0  0  0  0  0  0  0  0  0  0  0  0
   11.2506   -3.8952    0.0000 C   0  0  0  0  0  0  0  0  0  0  0  0
   12.5496   -4.6452    0.0000 C   0  0  0  0  0  0  0  0  0  0  0  0
   12.5496   -6.1452    0.0000 O   0  0  0  0  0  0  0  0  0  0  0  0
   13.8487   -3.8952    0.0000 C   0  0  0  0  0  0  0  0  0  0  0  0
   15.1477   -4.6452    0.0000 N   0  0  0  0  0  0  0  0  0  0  0  0
   16.4467   -3.8952    0.0000 C   0  0  0  0  0  0  0  0  0  0  0  0
   17.7457   -4.6452    0.0000 C   0  0  0  0  0  0  0  0  0  0  0  0
   16.4467   -2.3952    0.0000 C   0  0  0  0  0  0  0  0  0  0  0  0
    7.3533   -4.6452    0.0000 C   0  0  0  0  0  0  0  0  0  0  0  0
    6.0543   -3.8952    0.0000 C   0  0  0  0  0  0  0  0  0  0  0  0
  1  2  1  0  0  0  0
  2  3  1  0  0  0  0
  3  4  2  0  0  0  0
  3  5  1  0  0  0  0
  5  6  1  0  0  0  0
  6  7  1  0  0  0  0
  8  7  2  0  0  0  0
  7 21  1  0  0  0  0
  9  8  1  0  0  0  0
 10  9  2  0  0  0  0
 10 11  1  0  0  0  0
 20 10  1  0  0  0  0
 11 12  1  0  0  0  0
 12 13  1  0  0  0  0
 13 14  1  0  0  0  0
 13 15  1  0  0  0  0
 15 16  1  0  0  0  0
 16 17  1  0  0  0  0
 17 18  1  0  0  0  0
 17 19  1  0  0  0  0
 21 20  2  0  0  0  0
M  END
> <Inchi_key>
AQNDDEOPVVGCPG-UHFFFAOYSA-N

> <Source>
Mulliner , Kotsampasakou

> <ID>
EK0196;HT0787

> <H_MFHB>
0

> <CAS>


> <Cholestasis>
0

> <Name>
esmolol hydrochloride;esmolol

> <Class>
0

$$$$