

  -INDIGO-08031710012D

 39 40  0  0  0  0  0  0  0  0999 V2000
   -0.1112   -7.2732    0.0000 C   0  0  0  0  0  0  0  0  0  0  0  0
    1.3883   -7.3190    0.0000 C   0  0  0  0  0  0  0  0  0  0  0  0
    2.0981   -8.6404    0.0000 C   0  0  0  0  0  0  0  0  0  0  0  0
    2.1775   -6.0435    0.0000 C   0  0  0  0  0  0  0  0  0  0  0  0
    3.6767   -6.0894    0.0000 O   0  0  0  0  0  0  0  0  0  0  0  0
    1.4674   -4.7221    0.0000 C   0  0  0  0  0  0  0  0  0  0  0  0
    0.7837   -3.1378    0.0000 C   0  0  0  0  0  0  0  0  0  0  0  0
    1.1125   -2.0027    0.0000 C   0  0  0  0  0  0  0  0  0  0  0  0
    2.0078   -0.7991    0.0000 C   0  0  0  0  0  0  0  0  0  0  0  0
    1.4134    0.5780    0.0000 C   0  0  0  0  0  0  0  0  0  0  0  0
   -0.0765    0.7517    0.0000 C   0  0  0  0  0  0  0  0  0  0  0  0
   -0.9720   -0.4517    0.0000 C   0  0  0  0  0  0  0  0  0  0  0  0
   -0.6712    2.1289    0.0000 C   0  0  0  0  0  0  0  0  0  0  0  0
   -0.1104   -2.7901    0.0000 C   0  0  0  0  0  0  0  0  0  0  0  0
   -1.5479   -2.3616    0.0000 O   0  0  0  0  0  0  0  0  0  0  0  0
    0.5586   -4.2960    0.0000 C   0  0  0  0  0  0  0  0  0  0  0  0
   -0.9390   -4.3810    0.0000 C   0  0  0  0  0  0  0  0  0  0  0  0
   -1.6143   -5.7204    0.0000 C   0  0  0  0  0  0  0  0  0  0  0  0
   -3.1119   -5.8056    0.0000 C   0  0  0  0  0  0  0  0  0  0  0  0
   -3.7869   -7.1450    0.0000 C   0  0  0  0  0  0  0  0  0  0  0  0
   -3.9343   -4.5511    0.0000 C   0  0  0  0  0  0  0  0  0  0  0  0
    2.1641   -3.7068    0.0000 C   0  0  0  0  0  0  0  0  0  0  0  0
    2.8144   -2.6044    0.0000 C   0  0  0  0  0  0  0  0  0  0  0  0
    3.0608   -1.1248    0.0000 C   0  0  0  0  0  0  0  0  0  0  0  0
    4.4653   -0.5983    0.0000 C   0  0  0  0  0  0  0  0  0  0  0  0
    4.7117    0.8813    0.0000 C   0  0  0  0  0  0  0  0  0  0  0  0
    6.1162    1.4078    0.0000 C   0  0  0  0  0  0  0  0  0  0  0  0
    3.5534    1.8344    0.0000 C   0  0  0  0  0  0  0  0  0  0  0  0
    3.1181   -4.0770    0.0000 C   0  0  0  0  0  0  0  0  0  0  0  0
    3.8940   -5.3607    0.0000 C   0  0  0  0  0  0  0  0  0  0  0  0
    4.6115   -3.9371    0.0000 C   0  0  0  0  0  0  0  0  0  0  0  0
    5.4795   -5.1606    0.0000 C   0  0  0  0  0  0  0  0  0  0  0  0
    6.9729   -5.0207    0.0000 C   0  0  0  0  0  0  0  0  0  0  0  0
    7.8406   -6.2442    0.0000 C   0  0  0  0  0  0  0  0  0  0  0  0
    9.3342   -6.1045    0.0000 C   0  0  0  0  0  0  0  0  0  0  0  0
    7.2150   -7.6074    0.0000 C   0  0  0  0  0  0  0  0  0  0  0  0
    0.2470   -5.5224    0.0000 C   0  0  0  0  0  0  0  0  0  0  0  0
   -0.6240   -6.7436    0.0000 O   0  0  0  0  0  0  0  0  0  0  0  0
   -0.7135   -3.2322    0.0000 O   0  0  0  0  0  0  0  0  0  0  0  0
  1  2  1  0  0  0  0
  2  3  1  0  0  0  0
  2  4  1  0  0  0  0
  4  5  2  0  0  0  0
  4  6  1  0  0  0  0
  7  6  1  0  0  0  0
 29  6  1  0  0  0  0
  6 37  1  0  0  0  0
  8  7  2  0  0  0  0
  7 39  1  0  0  0  0
  8  9  1  0  0  0  0
 14  8  1  0  0  0  0
  9 10  1  0  0  0  0
 10 11  2  0  0  0  0
 11 12  1  0  0  0  0
 11 13  1  0  0  0  0
 14 15  2  0  0  0  0
 16 14  1  0  0  0  0
 16 17  1  0  0  0  0
 16 22  1  0  0  0  0
 37 16  1  0  0  0  0
 17 18  1  0  0  0  0
 18 19  2  0  0  0  0
 19 20  1  0  0  0  0
 19 21  1  0  0  0  0
 22 23  1  0  0  0  0
 23 24  1  0  0  0  0
 23 29  1  0  0  0  0
 24 25  1  0  0  0  0
 25 26  2  0  0  0  0
 26 27  1  0  0  0  0
 26 28  1  0  0  0  0
 29 30  1  0  0  0  0
 29 31  1  0  0  0  0
 31 32  1  0  0  0  0
 32 33  1  0  0  0  0
 33 34  2  0  0  0  0
 34 35  1  0  0  0  0
 34 36  1  0  0  0  0
 37 38  2  0  0  0  0
M  END
> <Inchi_key>
IWBJJCOKGLUQIZ-UHFFFAOYSA-N

> <Source>
Mulliner

> <ID>
HT1065

> <H_MFHB>
0

> <CAS>


> <Cholestasis>


> <Name>
hyperforin

> <Class>
0


$$$$