
  -INDIGO-08031710012D

 44 47  0  0  0  0  0  0  0  0999 V2000
    5.8593    1.5701    0.0000 O   0  0  0  0  0  0  0  0  0  0  0  0
    4.5603    0.8200    0.0000 C   0  0  0  0  0  0  0  0  0  0  0  0
    3.2610    1.5701    0.0000 C   0  0  0  0  0  0  0  0  0  0  0  0
    3.2610    3.0699    0.0000 O   0  0  0  0  0  0  0  0  0  0  0  0
    1.9620    3.8200    0.0000 C   0  0  0  0  0  0  0  0  0  0  0  0
    0.6630    3.0699    0.0000 O   0  0  0  0  0  0  0  0  0  0  0  0
    1.9620    5.3201    0.0000 C   0  0  0  0  0  0  0  0  0  0  0  0
    0.6630    6.0699    0.0000 C   0  0  0  0  0  0  0  0  0  0  0  0
    0.6630    7.5701    0.0000 C   0  0  0  0  0  0  0  0  0  0  0  0
   -0.6360    8.3201    0.0000 O   0  0  0  0  0  0  0  0  0  0  0  0
    1.9620    8.3201    0.0000 C   0  0  0  0  0  0  0  0  0  0  0  0
    1.9620    9.8200    0.0000 O   0  0  0  0  0  0  0  0  0  0  0  0
    3.2610    7.5701    0.0000 C   0  0  0  0  0  0  0  0  0  0  0  0
    4.5603    8.3201    0.0000 O   0  0  0  0  0  0  0  0  0  0  0  0
    3.2610    6.0699    0.0000 C   0  0  0  0  0  0  0  0  0  0  0  0
    1.9620    0.8200    0.0000 O   0  0  0  0  0  0  0  0  0  0  0  0
    1.9620   -0.6799    0.0000 C   0  0  0  0  0  0  0  0  0  0  0  0
    0.6630   -1.4299    0.0000 O   0  0  0  0  0  0  0  0  0  0  0  0
   -0.6360   -0.6799    0.0000 C   0  0  0  0  0  0  0  0  0  0  0  0
   -0.6360    0.8200    0.0000 O   0  0  0  0  0  0  0  0  0  0  0  0
   -1.9351   -1.4299    0.0000 C   0  0  0  0  0  0  0  0  0  0  0  0
   -1.9351   -2.9301    0.0000 C   0  0  0  0  0  0  0  0  0  0  0  0
   -3.2341   -3.6801    0.0000 C   0  0  0  0  0  0  0  0  0  0  0  0
   -3.2341   -5.1800    0.0000 O   0  0  0  0  0  0  0  0  0  0  0  0
   -4.5331   -2.9301    0.0000 C   0  0  0  0  0  0  0  0  0  0  0  0
   -5.8321   -3.6801    0.0000 O   0  0  0  0  0  0  0  0  0  0  0  0
   -4.5331   -1.4299    0.0000 C   0  0  0  0  0  0  0  0  0  0  0  0
   -5.8321   -0.6799    0.0000 O   0  0  0  0  0  0  0  0  0  0  0  0
   -3.2341   -0.6799    0.0000 C   0  0  0  0  0  0  0  0  0  0  0  0
    3.2610   -1.4299    0.0000 C   0  0  0  0  0  0  0  0  0  0  0  0
    3.2610   -2.9301    0.0000 O   0  0  0  0  0  0  0  0  0  0  0  0
    4.5603   -0.6799    0.0000 C   0  0  0  0  0  0  0  0  0  0  0  0
    5.8593   -1.4299    0.0000 O   0  0  0  0  0  0  0  0  0  0  0  0
    7.1583   -0.6799    0.0000 C   0  0  0  0  0  0  0  0  0  0  0  0
    7.1583    0.8200    0.0000 O   0  0  0  0  0  0  0  0  0  0  0  0
    8.4574   -1.4299    0.0000 C   0  0  0  0  0  0  0  0  0  0  0  0
    9.7564   -0.6799    0.0000 C   0  0  0  0  0  0  0  0  0  0  0  0
   11.0554   -1.4299    0.0000 C   0  0  0  0  0  0  0  0  0  0  0  0
   12.3544   -0.6799    0.0000 O   0  0  0  0  0  0  0  0  0  0  0  0
   11.0554   -2.9301    0.0000 C   0  0  0  0  0  0  0  0  0  0  0  0
   12.3544   -3.6801    0.0000 O   0  0  0  0  0  0  0  0  0  0  0  0
    9.7564   -3.6801    0.0000 C   0  0  0  0  0  0  0  0  0  0  0  0
    9.7564   -5.1800    0.0000 O   0  0  0  0  0  0  0  0  0  0  0  0
    8.4574   -2.9301    0.0000 C   0  0  0  0  0  0  0  0  0  0  0  0
  1  2  1  0  0  0  0
  3  2  1  0  0  0  0
  2 32  1  0  0  0  0
  3  4  1  0  0  0  0
 16  3  1  0  0  0  0
  4  5  1  0  0  0  0
  5  6  2  0  0  0  0
  5  7  1  0  0  0  0
  8  7  2  0  0  0  0
  7 15  1  0  0  0  0
  9  8  1  0  0  0  0
  9 10  1  0  0  0  0
 11  9  2  0  0  0  0
 11 12  1  0  0  0  0
 13 11  1  0  0  0  0
 13 14  1  0  0  0  0
 15 13  2  0  0  0  0
 17 16  1  0  0  0  0
 17 18  1  0  0  0  0
 30 17  1  0  0  0  0
 18 19  1  0  0  0  0
 19 20  2  0  0  0  0
 19 21  1  0  0  0  0
 22 21  2  0  0  0  0
 21 29  1  0  0  0  0
 23 22  1  0  0  0  0
 23 24  1  0  0  0  0
 25 23  2  0  0  0  0
 25 26  1  0  0  0  0
 27 25  1  0  0  0  0
 27 28  1  0  0  0  0
 29 27  2  0  0  0  0
 30 31  1  0  0  0  0
 32 30  1  0  0  0  0
 32 33  1  0  0  0  0
 33 34  1  0  0  0  0
 34 35  2  0  0  0  0
 34 36  1  0  0  0  0
 37 36  2  0  0  0  0
 36 44  1  0  0  0  0
 38 37  1  0  0  0  0
 38 39  1  0  0  0  0
 40 38  2  0  0  0  0
 40 41  1  0  0  0  0
 42 40  1  0  0  0  0
 42 43  1  0  0  0  0
 44 42  2  0  0  0  0
M  END
> <Inchi_key>
HTLJUAQRLFZWCX-UHFFFAOYSA-N

> <Source>
Mulliner

> <ID>
HT3955

> <H_MFHB>
0

> <CAS>


> <Cholestasis>


> <Name>


> <Class>
0

$$$$