

  -INDIGO-08031710012D

 22 23  0  0  0  0  0  0  0  0999 V2000
   12.6389   12.7204    0.0000 C   0  0  0  0  0  0  0  0  0  0  0  0
   12.6485   11.2204    0.0000 C   0  0  0  0  0  0  0  0  0  0  0  0
   11.3543   10.4621    0.0000 C   0  0  0  0  0  0  0  0  0  0  0  0
   11.3639    8.9621    0.0000 C   0  0  0  0  0  0  0  0  0  0  0  0
   10.0697    8.2038    0.0000 C   0  0  0  0  0  0  0  0  0  0  0  0
   10.0793    6.7039    0.0000 N   0  0  0  0  0  0  0  0  0  0  0  0
    8.7851    5.9455    0.0000 C   0  0  0  0  0  0  0  0  0  0  0  0
    8.7949    4.4455    0.0000 N   0  0  0  0  0  0  0  0  0  0  0  0
    7.4813    6.6872    0.0000 N   0  0  0  0  0  0  0  0  0  0  0  0
    6.1873    5.9288    0.0000 N   0  0  0  0  0  0  0  0  0  0  0  0
    4.8835    6.6704    0.0000 C   0  0  0  0  0  0  0  0  0  0  0  0
    3.5893    5.9121    0.0000 C   0  0  0  0  0  0  0  0  0  0  0  0
    3.4420    4.4193    0.0000 C   0  0  0  0  0  0  0  0  0  0  0  0
    1.9768    4.0980    0.0000 N   0  0  0  0  0  0  0  0  0  0  0  0
    1.2185    5.3922    0.0000 C   0  0  0  0  0  0  0  0  0  0  0  0
   -0.2507    5.6947    0.0000 C   0  0  0  0  0  0  0  0  0  0  0  0
   -0.7235    7.1182    0.0000 C   0  0  0  0  0  0  0  0  0  0  0  0
    0.2732    8.2394    0.0000 C   0  0  0  0  0  0  0  0  0  0  0  0
   -0.1996    9.6630    0.0000 C   0  0  0  0  0  0  0  0  0  0  0  0
   -1.6688    9.9653    0.0000 O   0  0  0  0  0  0  0  0  0  0  0  0
    1.7424    7.9369    0.0000 C   0  0  0  0  0  0  0  0  0  0  0  0
    2.2149    6.5134    0.0000 C   0  0  0  0  0  0  0  0  0  0  0  0
  1  2  1  0  0  0  0
  2  3  1  0  0  0  0
  3  4  1  0  0  0  0
  4  5  1  0  0  0  0
  5  6  1  0  0  0  0
  6  7  2  0  0  0  0
  7  8  1  0  0  0  0
  7  9  1  0  0  0  0
  9 10  1  0  0  0  0
 10 11  2  0  0  0  0
 11 12  1  0  0  0  0
 13 12  2  0  0  0  0
 12 22  1  0  0  0  0
 14 13  1  0  0  0  0
 15 14  1  0  0  0  0
 16 15  1  0  0  0  0
 15 22  2  0  0  0  0
 17 16  2  0  0  0  0
 18 17  1  0  0  0  0
 18 19  1  0  0  0  0
 21 18  2  0  0  0  0
 19 20  1  0  0  0  0
 22 21  1  0  0  0  0
M  END
> <Inchi_key>
HXYYJPLPXWLAMQ-KEBDBYFISA-N

> <Source>
Mulliner

> <ID>
HT3363

> <H_MFHB>
0

> <CAS>


> <Cholestasis>


> <Name>


> <Class>
0


$$$$