

  -INDIGO-08031710012D

 14 14  0  0  0  0  0  0  0  0999 V2000
    0.0000   -1.8558    0.0000 C   0  0  0  0  0  0  0  0  0  0  0  0
    1.5000   -1.8558    0.0000 C   0  0  0  0  0  0  0  0  0  0  0  0
    2.2499   -3.1548    0.0000 O   0  0  0  0  0  0  0  0  0  0  0  0
    2.2499   -0.5567    0.0000 N   0  0  0  0  0  0  0  0  0  0  0  0
    3.7500   -0.5567    0.0000 S   0  0  0  0  0  0  0  0  0  0  0  0
    3.7500    0.9433    0.0000 O   0  0  0  0  0  0  0  0  0  0  0  0
    3.7500   -2.0567    0.0000 O   0  0  0  0  0  0  0  0  0  0  0  0
    5.2500   -0.5567    0.0000 C   0  0  0  0  0  0  0  0  0  0  0  0
    6.0000   -1.8558    0.0000 C   0  0  0  0  0  0  0  0  0  0  0  0
    7.5001   -1.8558    0.0000 C   0  0  0  0  0  0  0  0  0  0  0  0
    8.2500   -0.5567    0.0000 C   0  0  0  0  0  0  0  0  0  0  0  0
    9.7500   -0.5567    0.0000 N   0  0  0  0  0  0  0  0  0  0  0  0
    7.5001    0.7423    0.0000 C   0  0  0  0  0  0  0  0  0  0  0  0
    6.0000    0.7423    0.0000 C   0  0  0  0  0  0  0  0  0  0  0  0
  1  2  1  0  0  0  0
  2  3  2  0  0  0  0
  2  4  1  0  0  0  0
  4  5  2  0  0  0  0
  5  6  2  0  0  0  0
  5  7  1  0  0  0  0
  5  8  1  0  0  0  0
  9  8  2  0  0  0  0
  8 14  1  0  0  0  0
 10  9  1  0  0  0  0
 11 10  2  0  0  0  0
 11 12  1  0  0  0  0
 13 11  1  0  0  0  0
 14 13  2  0  0  0  0
M  END
> <Inchi_key>
HVBWWYDIGJTFPA-UHFFFAOYSA-N

> <Source>
Mulliner , Kotsampasakou

> <ID>
EK0493;HT1934

> <H_MFHB>
0

> <CAS>


> <Cholestasis>
0

> <Name>
sulfacetamide sodium;sulfacetamide

> <Class>
0


$$$$