
  -INDIGO-08031710012D

 29 31  0  0  0  0  0  0  0  0999 V2000
    5.6351    9.6625    0.0000 C   0  0  0  0  0  0  0  0  0  0  0  0
    4.3360    8.9125    0.0000 C   0  0  0  0  0  0  0  0  0  0  0  0
    4.3360    7.4126    0.0000 C   0  0  0  0  0  0  0  0  0  0  0  0
    5.6351    6.6624    0.0000 C   0  0  0  0  0  0  0  0  0  0  0  0
    3.0370    6.6624    0.0000 C   0  0  0  0  0  0  0  0  0  0  0  0
    1.7381    7.4126    0.0000 O   0  0  0  0  0  0  0  0  0  0  0  0
    3.0370    5.1625    0.0000 O   0  0  0  0  0  0  0  0  0  0  0  0
    1.7381    4.4125    0.0000 C   0  0  0  0  0  0  0  0  0  0  0  0
    0.4390    5.1625    0.0000 C   0  0  0  0  0  0  0  0  0  0  0  0
   -0.8602    4.4125    0.0000 C   0  0  0  0  0  0  0  0  0  0  0  0
   -2.1591    5.1625    0.0000 C   0  0  0  0  0  0  0  0  0  0  0  0
   -0.8602    2.9126    0.0000 C   0  0  0  0  0  0  0  0  0  0  0  0
    0.4390    2.1624    0.0000 C   0  0  0  0  0  0  0  0  0  0  0  0
    0.4390    0.6625    0.0000 C   0  0  0  0  0  0  0  0  0  0  0  0
    1.7381   -0.0875    0.0000 C   0  0  0  0  0  0  0  0  0  0  0  0
    3.0370    0.6625    0.0000 C   0  0  0  0  0  0  0  0  0  0  0  0
    4.3360   -0.0875    0.0000 C   0  0  0  0  0  0  0  0  0  0  0  0
    3.0370    2.1624    0.0000 C   0  0  0  0  0  0  0  0  0  0  0  0
    4.3360    2.9126    0.0000 C   0  0  0  0  0  0  0  0  0  0  0  0
    5.6351    2.1624    0.0000 C   0  0  0  0  0  0  0  0  0  0  0  0
    6.9340    2.9126    0.0000 C   0  0  0  0  0  0  0  0  0  0  0  0
    6.9340    4.4125    0.0000 C   0  0  0  0  0  0  0  0  0  0  0  0
    8.2331    5.1625    0.0000 C   0  0  0  0  0  0  0  0  0  0  0  0
    8.2331    6.6624    0.0000 O   0  0  0  0  0  0  0  0  0  0  0  0
    9.5323    4.4125    0.0000 C   0  0  0  0  0  0  0  0  0  0  0  0
    9.5323    2.9126    0.0000 C   0  0  0  0  0  0  0  0  0  0  0  0
   10.8312    2.1624    0.0000 O   0  0  0  0  0  0  0  0  0  0  0  0
    8.2331    2.1624    0.0000 O   0  0  0  0  0  0  0  0  0  0  0  0
    1.7381    2.9126    0.0000 C   0  0  0  0  0  0  0  0  0  0  0  0
  1  2  1  0  0  0  0
  2  3  1  0  0  0  0
  3  4  1  0  0  0  0
  3  5  1  0  0  0  0
  5  6  2  0  0  0  0
  5  7  1  0  0  0  0
  7  8  1  0  0  0  0
  9  8  1  0  0  0  0
  8 29  1  0  0  0  0
 10  9  1  0  0  0  0
 10 11  1  0  0  0  0
 12 10  1  0  0  0  0
 13 12  1  0  0  0  0
 14 13  1  0  0  0  0
 13 29  1  0  0  0  0
 15 14  2  0  0  0  0
 16 15  1  0  0  0  0
 16 17  1  0  0  0  0
 18 16  1  0  0  0  0
 18 19  1  0  0  0  0
 29 18  1  0  0  0  0
 19 20  1  0  0  0  0
 20 21  1  0  0  0  0
 22 21  1  0  0  0  0
 21 28  1  0  0  0  0
 23 22  1  0  0  0  0
 23 24  1  0  0  0  0
 25 23  1  0  0  0  0
 26 25  1  0  0  0  0
 26 27  2  0  0  0  0
 28 26  1  0  0  0  0
M  END
> <Inchi_key>
IFIFFBWHLKGTMO-UHFFFAOYSA-N

> <Source>
Mulliner

> <ID>
HT1385

> <H_MFHB>
0

> <CAS>
73573-88-3

> <Cholestasis>


> <Name>
mevastatin

> <Class>
0

$$$$