
  -INDIGO-08031710012D

 19 20  0  0  0  0  0  0  0  0999 V2000
    0.3538   -4.6648    0.0000 C   0  0  0  0  0  0  0  0  0  0  0  0
    1.0829   -3.3539    0.0000 C   0  0  0  0  0  0  0  0  0  0  0  0
    0.3119   -2.0671    0.0000 C   0  0  0  0  0  0  0  0  0  0  0  0
    1.0408   -0.7561    0.0000 S   0  0  0  0  0  0  0  0  0  0  0  0
   -0.2701   -0.0272    0.0000 O   0  0  0  0  0  0  0  0  0  0  0  0
    1.0166    0.7437    0.0000 O   0  0  0  0  0  0  0  0  0  0  0  0
    2.5406   -0.7319    0.0000 C   0  0  0  0  0  0  0  0  0  0  0  0
    3.3116   -2.0187    0.0000 C   0  0  0  0  0  0  0  0  0  0  0  0
    2.5825   -3.3296    0.0000 N   0  0  0  0  0  0  0  0  0  0  0  0
    3.3533   -4.6164    0.0000 N   0  0  0  0  0  0  0  0  0  0  0  0
    4.8532   -4.5922    0.0000 C   0  0  0  0  0  0  0  0  0  0  0  0
    5.5822   -3.2812    0.0000 C   0  0  0  0  0  0  0  0  0  0  0  0
    7.0713   -3.1004    0.0000 O   0  0  0  0  0  0  0  0  0  0  0  0
    7.3594   -1.6283    0.0000 C   0  0  0  0  0  0  0  0  0  0  0  0
    6.0484   -0.8994    0.0000 C   0  0  0  0  0  0  0  0  0  0  0  0
    4.9500   -1.9209    0.0000 C   0  0  0  0  0  0  0  0  0  0  0  0
    8.7197   -0.9962    0.0000 N   0  0  0  0  0  0  0  0  0  0  0  0
    9.9473   -1.8581    0.0000 O   0  0  0  0  0  0  0  0  0  0  0  0
    8.8524    0.4980    0.0000 O   0  0  0  0  0  0  0  0  0  0  0  0
  1  2  1  0  0  0  0
  3  2  1  0  0  0  0
  2  9  1  0  0  0  0
  4  3  1  0  0  0  0
  4  5  2  0  0  0  0
  4  6  2  0  0  0  0
  7  4  1  0  0  0  0
  8  7  1  0  0  0  0
  9  8  1  0  0  0  0
  9 10  1  0  0  0  0
 10 11  2  0  0  0  0
 11 12  1  0  0  0  0
 13 12  1  0  0  0  0
 12 16  2  0  0  0  0
 14 13  1  0  0  0  0
 15 14  2  0  0  0  0
 14 17  1  0  0  0  0
 16 15  1  0  0  0  0
 17 18  2  0  0  0  0
 17 19  1  0  0  0  0
M  CHG  2  17   1  19  -1
M  END
> <Inchi_key>
ARFHIAQFJWUCFH-WDZFZDKYSA-N

> <Source>
Mulliner

> <ID>
HT1491

> <H_MFHB>
0

> <CAS>


> <Cholestasis>


> <Name>
nifurtimox

> <Class>
0

$$$$