
  -INDIGO-08031710012D

 12 12  0  0  0  0  0  0  0  0999 V2000
    6.9474   -1.8615    0.0000 C   0  0  0  0  0  0  0  0  0  0  0  0
    5.6483   -1.1115    0.0000 C   0  0  0  0  0  0  0  0  0  0  0  0
    6.3983    0.1875    0.0000 C   0  0  0  0  0  0  0  0  0  0  0  0
    4.8983   -2.4106    0.0000 N   0  0  0  0  0  0  0  0  0  0  0  0
    4.3493   -0.3615    0.0000 C   0  0  0  0  0  0  0  0  0  0  0  0
    3.0502   -1.1115    0.0000 C   0  0  0  0  0  0  0  0  0  0  0  0
    3.0502   -2.6115    0.0000 C   0  0  0  0  0  0  0  0  0  0  0  0
    1.7512   -3.3615    0.0000 C   0  0  0  0  0  0  0  0  0  0  0  0
    0.4522   -2.6115    0.0000 C   0  0  0  0  0  0  0  0  0  0  0  0
    0.4522   -1.1115    0.0000 C   0  0  0  0  0  0  0  0  0  0  0  0
    1.7512   -0.3615    0.0000 C   0  0  0  0  0  0  0  0  0  0  0  0
    1.7512    1.1385    0.0000 Cl  0  0  0  0  0  0  0  0  0  0  0  0
  1  2  1  0  0  0  0
  2  3  1  0  0  0  0
  2  4  1  0  0  0  0
  2  5  1  0  0  0  0
  5  6  1  0  0  0  0
  7  6  2  0  0  0  0
  6 11  1  0  0  0  0
  8  7  1  0  0  0  0
  9  8  2  0  0  0  0
 10  9  1  0  0  0  0
 11 10  2  0  0  0  0
 11 12  1  0  0  0  0
M  END
> <Inchi_key>
HXCXASJHZQXCKK-UHFFFAOYSA-N

> <Source>
Mulliner

> <ID>
HT2795

> <H_MFHB>
0

> <CAS>


> <Cholestasis>


> <Name>


> <Class>
0

$$$$