
  -INDIGO-08031710012D

 20 21  0  0  0  0  0  0  0  0999 V2000
    0.9430    0.2526    0.0000 C   0  0  0  0  0  0  0  0  0  0  0  0
   -0.3562   -0.4973    0.0000 N   0  0  0  0  0  0  0  0  0  0  0  0
   -1.6551    0.2526    0.0000 C   0  0  0  0  0  0  0  0  0  0  0  0
   -0.3562   -1.9973    0.0000 C   0  0  0  0  0  0  0  0  0  0  0  0
    0.9430   -2.7474    0.0000 C   0  0  0  0  0  0  0  0  0  0  0  0
    0.9430   -4.2474    0.0000 N   0  0  0  0  0  0  0  0  0  0  0  0
    2.2419   -4.9973    0.0000 C   0  0  0  0  0  0  0  0  0  0  0  0
    3.5409   -4.2474    0.0000 C   0  0  0  0  0  0  0  0  0  0  0  0
    3.5409   -2.7474    0.0000 C   0  0  0  0  0  0  0  0  0  0  0  0
    4.8400   -1.9973    0.0000 C   0  0  0  0  0  0  0  0  0  0  0  0
    6.1390   -2.7474    0.0000 C   0  0  0  0  0  0  0  0  0  0  0  0
    7.4381   -1.9973    0.0000 Cl  0  0  0  0  0  0  0  0  0  0  0  0
    6.1390   -4.2474    0.0000 C   0  0  0  0  0  0  0  0  0  0  0  0
    4.8400   -4.9973    0.0000 C   0  0  0  0  0  0  0  0  0  0  0  0
   -0.3562   -4.9973    0.0000 C   0  0  0  0  0  0  0  0  0  0  0  0
   -1.6551   -4.2474    0.0000 C   0  0  0  0  0  0  0  0  0  0  0  0
   -2.9542   -4.9973    0.0000 C   0  0  0  0  0  0  0  0  0  0  0  0
   -2.9542   -6.4973    0.0000 C   0  0  0  0  0  0  0  0  0  0  0  0
   -1.6551   -7.2474    0.0000 C   0  0  0  0  0  0  0  0  0  0  0  0
   -0.3562   -6.4973    0.0000 N   0  0  0  0  0  0  0  0  0  0  0  0
  1  2  1  0  0  0  0
  2  3  1  0  0  0  0
  2  4  1  0  0  0  0
  4  5  1  0  0  0  0
  5  6  1  0  0  0  0
  6  7  1  0  0  0  0
  6 15  1  0  0  0  0
  7  8  1  0  0  0  0
  9  8  2  0  0  0  0
  8 14  1  0  0  0  0
 10  9  1  0  0  0  0
 11 10  2  0  0  0  0
 11 12  1  0  0  0  0
 13 11  1  0  0  0  0
 14 13  2  0  0  0  0
 16 15  2  0  0  0  0
 15 20  1  0  0  0  0
 17 16  1  0  0  0  0
 18 17  2  0  0  0  0
 19 18  1  0  0  0  0
 20 19  2  0  0  0  0
M  END
> <Inchi_key>
ICKFFNBDFNZJSX-UHFFFAOYSA-N

> <Source>
Mulliner

> <ID>
HT0458

> <H_MFHB>
0

> <CAS>


> <Cholestasis>


> <Name>
chloropyramine

> <Class>
0

$$$$