
  -INDIGO-08031710012D

 10 10  0  0  0  0  0  0  0  0999 V2000
    5.0510    1.1819    0.0000 C   0  0  0  0  0  0  0  0  0  0  0  0
    3.8885    0.2339    0.0000 N   0  0  0  0  0  0  0  0  0  0  0  0
    3.9723   -1.2638    0.0000 C   0  0  0  0  0  0  0  0  0  0  0  0
    5.2331   -2.0764    0.0000 O   0  0  0  0  0  0  0  0  0  0  0  0
    2.5738   -1.8062    0.0000 O   0  0  0  0  0  0  0  0  0  0  0  0
    1.6257   -0.6438    0.0000 C   0  0  0  0  0  0  0  0  0  0  0  0
    0.3564   -1.4431    0.0000 C   0  0  0  0  0  0  0  0  0  0  0  0
    0.3241    0.1017    0.0000 C   0  0  0  0  0  0  0  0  0  0  0  0
    2.4383    0.6171    0.0000 C   0  0  0  0  0  0  0  0  0  0  0  0
    1.8959    2.0156    0.0000 O   0  0  0  0  0  0  0  0  0  0  0  0
  1  2  1  0  0  0  0
  3  2  1  0  0  0  0
  2  9  1  0  0  0  0
  3  4  2  0  0  0  0
  5  3  1  0  0  0  0
  6  5  1  0  0  0  0
  6  7  1  0  0  0  0
  6  8  1  0  0  0  0
  9  6  1  0  0  0  0
  9 10  2  0  0  0  0
M  END
> <Inchi_key>
IRYJRGCIQBGHIV-UHFFFAOYSA-N

> <Source>
Mulliner

> <ID>
HT2124

> <H_MFHB>
0

> <CAS>


> <Cholestasis>


> <Name>
trimethadione

> <Class>
0

$$$$