

  -INDIGO-08031709442D

 25 27  0  0  0  0  0  0  0  0999 V2000
    2.3812    5.6033    0.0000 Cl  0  0  0  0  0  0  0  0  0  0  0  0
    3.4222    4.5235    0.0000 C   0  0  0  0  0  0  0  0  0  0  0  0
    3.0075    3.0819    0.0000 C   0  0  0  0  0  0  0  0  0  0  0  0
    4.0489    2.0021    0.0000 C   0  0  0  0  0  0  0  0  0  0  0  0
    5.5045    2.3638    0.0000 C   0  0  0  0  0  0  0  0  0  0  0  0
    6.6938    1.4497    0.0000 N   0  0  0  0  0  0  0  0  0  0  0  0
    8.0331    2.1249    0.0000 C   0  0  0  0  0  0  0  0  0  0  0  0
    9.2878    1.3026    0.0000 C   0  0  0  0  0  0  0  0  0  0  0  0
   10.5422    0.4802    0.0000 F   0  0  0  0  0  0  0  0  0  0  0  0
   10.1100    2.5571    0.0000 F   0  0  0  0  0  0  0  0  0  0  0  0
    8.4653    0.0481    0.0000 F   0  0  0  0  0  0  0  0  0  0  0  0
    6.7214   -0.0501    0.0000 C   0  0  0  0  0  0  0  0  0  0  0  0
    8.0847   -0.6756    0.0000 S   0  0  0  0  0  0  0  0  0  0  0  0
    5.5664   -1.0073    0.0000 C   0  0  0  0  0  0  0  0  0  0  0  0
    4.0985   -0.7007    0.0000 N   0  0  0  0  0  0  0  0  0  0  0  0
    3.4232    0.6387    0.0000 C   0  0  0  0  0  0  0  0  0  0  0  0
    1.9234    0.6111    0.0000 C   0  0  0  0  0  0  0  0  0  0  0  0
    1.1498    1.8961    0.0000 C   0  0  0  0  0  0  0  0  0  0  0  0
   -0.3500    1.8686    0.0000 C   0  0  0  0  0  0  0  0  0  0  0  0
   -1.0760    0.5559    0.0000 C   0  0  0  0  0  0  0  0  0  0  0  0
   -0.3022   -0.7291    0.0000 C   0  0  0  0  0  0  0  0  0  0  0  0
    1.1975   -0.7016    0.0000 C   0  0  0  0  0  0  0  0  0  0  0  0
    1.9713   -1.9865    0.0000 F   0  0  0  0  0  0  0  0  0  0  0  0
    5.9190    3.8053    0.0000 C   0  0  0  0  0  0  0  0  0  0  0  0
    4.8780    4.8851    0.0000 C   0  0  0  0  0  0  0  0  0  0  0  0
  1  2  1  0  0  0  0
  3  2  2  0  0  0  0
  2 25  1  0  0  0  0
  4  3  1  0  0  0  0
  4  5  2  0  0  0  0
 16  4  1  0  0  0  0
  5  6  1  0  0  0  0
 24  5  1  0  0  0  0
  6  7  1  0  0  0  0
  6 12  1  0  0  0  0
  7  8  1  0  0  0  0
  8  9  1  0  0  0  0
  8 10  1  0  0  0  0
  8 11  1  0  0  0  0
 12 13  2  0  0  0  0
 12 14  1  0  0  0  0
 14 15  1  0  0  0  0
 15 16  2  0  0  0  0
 16 17  1  0  0  0  0
 18 17  2  0  0  0  0
 17 22  1  0  0  0  0
 19 18  1  0  0  0  0
 20 19  2  0  0  0  0
 21 20  1  0  0  0  0
 22 21  2  0  0  0  0
 22 23  1  0  0  0  0
 25 24  2  0  0  0  0
M  END
> <Inchi_key>
IKMPWMZBZSAONZ-UHFFFAOYSA-N

> <Source>
Kotsampasakou

> <ID>
EK0460

> <H_MFHB>


> <CAS>


> <Cholestasis>
0

> <Name>
quazepam

> <Class>
0


$$$$