

  -INDIGO-08031710012D

 25 26  0  0  0  0  0  0  0  0999 V2000
   -1.7309   -4.6599    0.0000 C   0  0  0  0  0  0  0  0  0  0  0  0
   -0.4319   -3.9099    0.0000 O   0  0  0  0  0  0  0  0  0  0  0  0
    0.8672   -4.6599    0.0000 C   0  0  0  0  0  0  0  0  0  0  0  0
    0.8672   -6.1599    0.0000 C   0  0  0  0  0  0  0  0  0  0  0  0
    2.1662   -6.9099    0.0000 C   0  0  0  0  0  0  0  0  0  0  0  0
    3.4653   -6.1599    0.0000 C   0  0  0  0  0  0  0  0  0  0  0  0
    4.7643   -6.9099    0.0000 C   0  0  0  0  0  0  0  0  0  0  0  0
    6.0633   -6.1599    0.0000 C   0  0  0  0  0  0  0  0  0  0  0  0
    7.3624   -6.9099    0.0000 N   0  0  0  0  0  0  0  0  0  0  0  0
    8.6614   -6.1599    0.0000 C   0  0  0  0  0  0  0  0  0  0  0  0
    9.9605   -6.9099    0.0000 C   0  0  0  0  0  0  0  0  0  0  0  0
    9.9605   -8.4099    0.0000 O   0  0  0  0  0  0  0  0  0  0  0  0
   11.2595   -6.1599    0.0000 C   0  0  0  0  0  0  0  0  0  0  0  0
   12.5585   -6.9099    0.0000 O   0  0  0  0  0  0  0  0  0  0  0  0
   13.8576   -6.1599    0.0000 C   0  0  0  0  0  0  0  0  0  0  0  0
   13.8576   -4.6599    0.0000 C   0  0  0  0  0  0  0  0  0  0  0  0
   15.1566   -3.9099    0.0000 C   0  0  0  0  0  0  0  0  0  0  0  0
   16.4557   -4.6599    0.0000 C   0  0  0  0  0  0  0  0  0  0  0  0
   16.4557   -6.1599    0.0000 C   0  0  0  0  0  0  0  0  0  0  0  0
   17.7547   -6.9099    0.0000 C   0  0  0  0  0  0  0  0  0  0  0  0
   15.1566   -6.9099    0.0000 C   0  0  0  0  0  0  0  0  0  0  0  0
    3.4653   -4.6599    0.0000 C   0  0  0  0  0  0  0  0  0  0  0  0
    2.1662   -3.9099    0.0000 C   0  0  0  0  0  0  0  0  0  0  0  0
    2.1662   -2.4099    0.0000 O   0  0  0  0  0  0  0  0  0  0  0  0
    3.4653   -1.6599    0.0000 C   0  0  0  0  0  0  0  0  0  0  0  0
  1  2  1  0  0  0  0
  2  3  1  0  0  0  0
  4  3  2  0  0  0  0
  3 23  1  0  0  0  0
  5  4  1  0  0  0  0
  6  5  2  0  0  0  0
  6  7  1  0  0  0  0
 22  6  1  0  0  0  0
  7  8  1  0  0  0  0
  8  9  1  0  0  0  0
  9 10  1  0  0  0  0
 10 11  1  0  0  0  0
 11 12  1  0  0  0  0
 11 13  1  0  0  0  0
 13 14  1  0  0  0  0
 14 15  1  0  0  0  0
 16 15  2  0  0  0  0
 15 21  1  0  0  0  0
 17 16  1  0  0  0  0
 18 17  2  0  0  0  0
 19 18  1  0  0  0  0
 19 20  1  0  0  0  0
 21 19  2  0  0  0  0
 23 22  2  0  0  0  0
 23 24  1  0  0  0  0
 24 25  1  0  0  0  0
M  END
> <Inchi_key>
HXLAFSUPPDYFEO-UHFFFAOYSA-N

> <Source>
Mulliner

> <ID>
HT0279

> <H_MFHB>
0

> <CAS>


> <Cholestasis>


> <Name>
bevantolol

> <Class>
0


$$$$