
  -INDIGO-08031710012D

 23 24  0  0  0  0  0  0  0  0999 V2000
    8.5066   -8.5065    0.0000 N   0  0  0  0  0  0  0  0  0  0  0  0
    8.5066   -7.0065    0.0000 C   0  0  0  0  0  0  0  0  0  0  0  0
    9.8055   -6.2565    0.0000 O   0  0  0  0  0  0  0  0  0  0  0  0
    7.2074   -6.2565    0.0000 C   0  0  0  0  0  0  0  0  0  0  0  0
    5.9085   -7.0065    0.0000 C   0  0  0  0  0  0  0  0  0  0  0  0
    4.6093   -6.2565    0.0000 C   0  0  0  0  0  0  0  0  0  0  0  0
    3.3104   -7.0065    0.0000 N   0  0  0  0  0  0  0  0  0  0  0  0
    2.0113   -6.2565    0.0000 C   0  0  0  0  0  0  0  0  0  0  0  0
    2.0113   -4.7564    0.0000 C   0  0  0  0  0  0  0  0  0  0  0  0
    0.7121   -4.0065    0.0000 C   0  0  0  0  0  0  0  0  0  0  0  0
    0.7121   -2.5065    0.0000 C   0  0  0  0  0  0  0  0  0  0  0  0
    2.0113   -1.7564    0.0000 C   0  0  0  0  0  0  0  0  0  0  0  0
    2.0113   -0.2565    0.0000 Cl  0  0  0  0  0  0  0  0  0  0  0  0
    3.3104   -2.5065    0.0000 C   0  0  0  0  0  0  0  0  0  0  0  0
    3.3104   -4.0065    0.0000 C   0  0  0  0  0  0  0  0  0  0  0  0
    0.7121   -7.0065    0.0000 C   0  0  0  0  0  0  0  0  0  0  0  0
   -0.5868   -6.2565    0.0000 C   0  0  0  0  0  0  0  0  0  0  0  0
   -1.8858   -7.0065    0.0000 C   0  0  0  0  0  0  0  0  0  0  0  0
   -3.1849   -6.2565    0.0000 F   0  0  0  0  0  0  0  0  0  0  0  0
   -1.8858   -8.5065    0.0000 C   0  0  0  0  0  0  0  0  0  0  0  0
   -0.5868   -9.2565    0.0000 C   0  0  0  0  0  0  0  0  0  0  0  0
    0.7121   -8.5065    0.0000 C   0  0  0  0  0  0  0  0  0  0  0  0
    2.0113   -9.2565    0.0000 O   0  0  0  0  0  0  0  0  0  0  0  0
  1  2  1  0  0  0  0
  2  3  2  0  0  0  0
  2  4  1  0  0  0  0
  4  5  1  0  0  0  0
  5  6  1  0  0  0  0
  6  7  1  0  0  0  0
  7  8  2  0  0  0  0
  8  9  1  0  0  0  0
  8 16  1  0  0  0  0
 10  9  2  0  0  0  0
  9 15  1  0  0  0  0
 11 10  1  0  0  0  0
 12 11  2  0  0  0  0
 12 13  1  0  0  0  0
 14 12  1  0  0  0  0
 15 14  2  0  0  0  0
 17 16  2  0  0  0  0
 16 22  1  0  0  0  0
 18 17  1  0  0  0  0
 18 19  1  0  0  0  0
 20 18  2  0  0  0  0
 21 20  1  0  0  0  0
 22 21  2  0  0  0  0
 22 23  1  0  0  0  0
M  END
> <Inchi_key>
IBALRBWGSVJPAP-HEHNFIMWSA-N

> <Source>
Mulliner

> <ID>
HT1750

> <H_MFHB>
0

> <CAS>
62666-20-0

> <Cholestasis>


> <Name>
progabide

> <Class>
0

$$$$