
  -INDIGO-08031710012D

 27 26  0  0  0  0  0  0  0  0999 V2000
    0.0000    0.0000    0.0000 N   0  0  0  0  0  0  0  0  0  0  0  0
    1.5001    0.0000    0.0000 C   0  0  0  0  0  0  0  0  0  0  0  0
    2.2501    1.2990    0.0000 C   0  0  0  0  0  0  0  0  0  0  0  0
    3.7502    1.2990    0.0000 C   0  0  0  0  0  0  0  0  0  0  0  0
    4.4998    2.5982    0.0000 N   0  0  0  0  0  0  0  0  0  0  0  0
    5.9999    2.5982    0.0000 C   0  0  0  0  0  0  0  0  0  0  0  0
    6.7499    3.8970    0.0000 C   0  0  0  0  0  0  0  0  0  0  0  0
    8.2500    3.8970    0.0000 C   0  0  0  0  0  0  0  0  0  0  0  0
    9.0000    5.1962    0.0000 C   0  0  0  0  0  0  0  0  0  0  0  0
   10.5001    5.1962    0.0000 N   0  0  0  0  0  0  0  0  0  0  0  0
   11.2501    6.4952    0.0000 C   0  0  0  0  0  0  0  0  0  0  0  0
   10.5001    7.7942    0.0000 O   0  0  0  0  0  0  0  0  0  0  0  0
   12.7498    6.4952    0.0000 C   0  0  0  0  0  0  0  0  0  0  0  0
   13.4999    7.7942    0.0000 O   0  0  0  0  0  0  0  0  0  0  0  0
   13.4999    5.1962    0.0000 N   0  0  0  0  0  0  0  0  0  0  0  0
   14.9999    5.1962    0.0000 C   0  0  0  0  0  0  0  0  0  0  0  0
   15.7500    6.4952    0.0000 O   0  0  0  0  0  0  0  0  0  0  0  0
   15.7500    3.8970    0.0000 C   0  0  0  0  0  0  0  0  0  0  0  0
   17.2500    3.8970    0.0000 C   0  0  0  0  0  0  0  0  0  0  0  0
   18.0001    2.5982    0.0000 C   0  0  0  0  0  0  0  0  0  0  0  0
   19.5001    2.5982    0.0000 C   0  0  0  0  0  0  0  0  0  0  0  0
   20.2502    1.2990    0.0000 C   0  0  0  0  0  0  0  0  0  0  0  0
   21.7499    1.2990    0.0000 C   0  0  0  0  0  0  0  0  0  0  0  0
   22.4999    0.0000    0.0000 N   0  0  0  0  0  0  0  0  0  0  0  0
   24.0000    0.0000    0.0000 C   0  0  0  0  0  0  0  0  0  0  0  0
   24.7500    1.2990    0.0000 N   0  0  0  0  0  0  0  0  0  0  0  0
   24.7500   -1.2990    0.0000 N   0  0  0  0  0  0  0  0  0  0  0  0
  1  2  1  0  0  0  0
  2  3  1  0  0  0  0
  3  4  1  0  0  0  0
  4  5  1  0  0  0  0
  5  6  1  0  0  0  0
  6  7  1  0  0  0  0
  7  8  1  0  0  0  0
  8  9  1  0  0  0  0
  9 10  1  0  0  0  0
 10 11  1  0  0  0  0
 11 12  2  0  0  0  0
 11 13  1  0  0  0  0
 13 14  1  0  0  0  0
 13 15  1  0  0  0  0
 15 16  1  0  0  0  0
 16 17  2  0  0  0  0
 16 18  1  0  0  0  0
 18 19  1  0  0  0  0
 19 20  1  0  0  0  0
 20 21  1  0  0  0  0
 21 22  1  0  0  0  0
 22 23  1  0  0  0  0
 23 24  1  0  0  0  0
 24 25  2  0  0  0  0
 25 26  1  0  0  0  0
 25 27  1  0  0  0  0
M  END
> <Inchi_key>
IDINUJSAMVOPCM-UHFFFAOYSA-N

> <Source>
Mulliner

> <ID>
HT1012

> <H_MFHB>
0

> <CAS>


> <Cholestasis>


> <Name>
gusperimus

> <Class>
0

$$$$