

  -INDIGO-08031710012D

 21 21  0  0  0  0  0  0  0  0999 V2000
    3.3930    5.8766    0.0000 C   0  0  0  0  0  0  0  0  0  0  0  0
    4.1430    4.5776    0.0000 O   0  0  0  0  0  0  0  0  0  0  0  0
    3.3930    3.2785    0.0000 C   0  0  0  0  0  0  0  0  0  0  0  0
    1.8929    3.2785    0.0000 O   0  0  0  0  0  0  0  0  0  0  0  0
    4.1430    1.9796    0.0000 C   0  0  0  0  0  0  0  0  0  0  0  0
    3.3930    0.6803    0.0000 C   0  0  0  0  0  0  0  0  0  0  0  0
    1.8929    0.6803    0.0000 C   0  0  0  0  0  0  0  0  0  0  0  0
    1.1429    1.9796    0.0000 C   0  0  0  0  0  0  0  0  0  0  0  0
   -0.3571    1.9796    0.0000 C   0  0  0  0  0  0  0  0  0  0  0  0
   -1.1071    0.6803    0.0000 C   0  0  0  0  0  0  0  0  0  0  0  0
   -0.3571   -0.6186    0.0000 C   0  0  0  0  0  0  0  0  0  0  0  0
    1.1429   -0.6186    0.0000 C   0  0  0  0  0  0  0  0  0  0  0  0
    5.6428    1.9796    0.0000 N   0  0  0  0  0  0  0  0  0  0  0  0
    6.3928    0.6803    0.0000 C   0  0  0  0  0  0  0  0  0  0  0  0
    5.6428   -0.6186    0.0000 O   0  0  0  0  0  0  0  0  0  0  0  0
    7.8929    0.6803    0.0000 C   0  0  0  0  0  0  0  0  0  0  0  0
    8.6429    1.9796    0.0000 N   0  0  0  0  0  0  0  0  0  0  0  0
    8.6429   -0.6186    0.0000 C   0  0  0  0  0  0  0  0  0  0  0  0
   10.1429   -0.6186    0.0000 C   0  0  0  0  0  0  0  0  0  0  0  0
   10.8929   -1.9176    0.0000 O   0  0  0  0  0  0  0  0  0  0  0  0
   10.8929    0.6803    0.0000 O   0  0  0  0  0  0  0  0  0  0  0  0
  1  2  1  0  0  0  0
  2  3  1  0  0  0  0
  3  4  2  0  0  0  0
  3  5  1  0  0  0  0
  5  6  1  0  0  0  0
  5 13  1  0  0  0  0
  6  7  1  0  0  0  0
  8  7  2  0  0  0  0
  7 12  1  0  0  0  0
  9  8  1  0  0  0  0
 10  9  2  0  0  0  0
 11 10  1  0  0  0  0
 12 11  2  0  0  0  0
 13 14  1  0  0  0  0
 14 15  2  0  0  0  0
 14 16  1  0  0  0  0
 16 17  1  0  0  0  0
 16 18  1  0  0  0  0
 18 19  1  0  0  0  0
 19 20  2  0  0  0  0
 19 21  1  0  0  0  0
M  END
> <Inchi_key>
IAOZJIPTCAWIRG-UHFFFAOYSA-N

> <Source>
Mulliner

> <ID>
HT0188

> <H_MFHB>
0

> <CAS>


> <Cholestasis>


> <Name>
aspartame

> <Class>
0


$$$$