
  -INDIGO-08031710012D

 25 27  0  0  0  0  0  0  0  0999 V2000
    3.6400   -1.6600    0.0000 C   0  0  0  0  0  0  0  0  0  0  0  0
    3.6400   -3.1600    0.0000 C   0  0  0  0  0  0  0  0  0  0  0  0
    4.9391   -3.9101    0.0000 C   0  0  0  0  0  0  0  0  0  0  0  0
    6.2380   -3.1600    0.0000 C   0  0  0  0  0  0  0  0  0  0  0  0
    6.2380   -1.6600    0.0000 C   0  0  0  0  0  0  0  0  0  0  0  0
    7.5371   -0.9099    0.0000 C   0  0  0  0  0  0  0  0  0  0  0  0
    8.8362   -1.6600    0.0000 C   0  0  0  0  0  0  0  0  0  0  0  0
    8.8362   -3.1600    0.0000 C   0  0  0  0  0  0  0  0  0  0  0  0
    7.5371   -3.9101    0.0000 C   0  0  0  0  0  0  0  0  0  0  0  0
    2.3409   -3.9101    0.0000 N   0  0  0  0  0  0  0  0  0  0  0  0
    1.0421   -3.1600    0.0000 C   0  0  0  0  0  0  0  0  0  0  0  0
   -0.2570   -3.9101    0.0000 C   0  0  0  0  0  0  0  0  0  0  0  0
   -1.5561   -3.1600    0.0000 C   0  0  0  0  0  0  0  0  0  0  0  0
   -2.8552   -3.9101    0.0000 C   0  0  0  0  0  0  0  0  0  0  0  0
   -2.8552   -5.4099    0.0000 C   0  0  0  0  0  0  0  0  0  0  0  0
   -4.1541   -6.1600    0.0000 C   0  0  0  0  0  0  0  0  0  0  0  0
   -5.4532   -5.4099    0.0000 C   0  0  0  0  0  0  0  0  0  0  0  0
   -5.4532   -3.9101    0.0000 C   0  0  0  0  0  0  0  0  0  0  0  0
   -4.1541   -3.1600    0.0000 C   0  0  0  0  0  0  0  0  0  0  0  0
   -1.5561   -1.6600    0.0000 C   0  0  0  0  0  0  0  0  0  0  0  0
   -0.2570   -0.9099    0.0000 C   0  0  0  0  0  0  0  0  0  0  0  0
   -0.2570    0.5901    0.0000 C   0  0  0  0  0  0  0  0  0  0  0  0
   -1.5561    1.3400    0.0000 C   0  0  0  0  0  0  0  0  0  0  0  0
   -2.8552    0.5901    0.0000 C   0  0  0  0  0  0  0  0  0  0  0  0
   -2.8552   -0.9099    0.0000 C   0  0  0  0  0  0  0  0  0  0  0  0
  1  2  1  0  0  0  0
  2  3  1  0  0  0  0
  2 10  1  0  0  0  0
  3  4  1  0  0  0  0
  5  4  2  0  0  0  0
  4  9  1  0  0  0  0
  6  5  1  0  0  0  0
  7  6  2  0  0  0  0
  8  7  1  0  0  0  0
  9  8  2  0  0  0  0
 10 11  1  0  0  0  0
 11 12  1  0  0  0  0
 12 13  1  0  0  0  0
 13 14  1  0  0  0  0
 13 20  1  0  0  0  0
 15 14  2  0  0  0  0
 14 19  1  0  0  0  0
 16 15  1  0  0  0  0
 17 16  2  0  0  0  0
 18 17  1  0  0  0  0
 19 18  2  0  0  0  0
 21 20  2  0  0  0  0
 20 25  1  0  0  0  0
 22 21  1  0  0  0  0
 23 22  2  0  0  0  0
 24 23  1  0  0  0  0
 25 24  2  0  0  0  0
M  END
> <Inchi_key>
IFFPICMESYHZPQ-UHFFFAOYSA-N

> <Source>
Mulliner

> <ID>
HT1737

> <H_MFHB>
0

> <CAS>


> <Cholestasis>


> <Name>
prenylamine

> <Class>
0

$$$$