
  -INDIGO-08031710012D

 13 13  0  0  0  0  0  0  0  0999 V2000
   -0.3213   -0.3213    0.0000 C   0  0  0  0  0  0  0  0  0  0  0  0
   -0.3213   -1.8213    0.0000 C   0  0  0  0  0  0  0  0  0  0  0  0
   -1.6203   -2.5713    0.0000 C   0  0  0  0  0  0  0  0  0  0  0  0
   -1.6203   -4.0713    0.0000 C   0  0  0  0  0  0  0  0  0  0  0  0
   -0.3213   -4.8213    0.0000 C   0  0  0  0  0  0  0  0  0  0  0  0
    0.9777   -4.0713    0.0000 C   0  0  0  0  0  0  0  0  0  0  0  0
    0.9777   -2.5713    0.0000 C   0  0  0  0  0  0  0  0  0  0  0  0
    2.2769   -1.8213    0.0000 O   0  0  0  0  0  0  0  0  0  0  0  0
    3.5757   -2.5713    0.0000 C   0  0  0  0  0  0  0  0  0  0  0  0
    4.8749   -1.8213    0.0000 C   0  0  0  0  0  0  0  0  0  0  0  0
    4.8749   -0.3213    0.0000 O   0  0  0  0  0  0  0  0  0  0  0  0
    6.1739   -2.5713    0.0000 C   0  0  0  0  0  0  0  0  0  0  0  0
    7.4729   -1.8213    0.0000 O   0  0  0  0  0  0  0  0  0  0  0  0
  1  2  1  0  0  0  0
  3  2  2  0  0  0  0
  2  7  1  0  0  0  0
  4  3  1  0  0  0  0
  5  4  2  0  0  0  0
  6  5  1  0  0  0  0
  7  6  2  0  0  0  0
  7  8  1  0  0  0  0
  8  9  1  0  0  0  0
  9 10  1  0  0  0  0
 10 11  1  0  0  0  0
 10 12  1  0  0  0  0
 12 13  1  0  0  0  0
M  END
> <Inchi_key>
JWDYCNIAQWPBHD-UHFFFAOYSA-N

> <Source>
Mulliner

> <ID>
HT2789

> <H_MFHB>
0

> <CAS>


> <Cholestasis>


> <Name>


> <Class>
0

$$$$