

  -INDIGO-08031710012D

 19 19  0  0  0  0  0  0  0  0999 V2000
   -1.0263    1.7776    0.0000 C   0  0  0  0  0  0  0  0  0  0  0  0
   -0.2763    3.0767    0.0000 C   0  0  0  0  0  0  0  0  0  0  0  0
    1.2237    3.0767    0.0000 C   0  0  0  0  0  0  0  0  0  0  0  0
    1.9737    1.7776    0.0000 C   0  0  0  0  0  0  0  0  0  0  0  0
    1.9737    4.3757    0.0000 C   0  0  0  0  0  0  0  0  0  0  0  0
    1.2237    5.6747    0.0000 O   0  0  0  0  0  0  0  0  0  0  0  0
    3.4738    4.3757    0.0000 C   0  0  0  0  0  0  0  0  0  0  0  0
    4.2238    3.0767    0.0000 C   0  0  0  0  0  0  0  0  0  0  0  0
    5.7236    3.0767    0.0000 C   0  0  0  0  0  0  0  0  0  0  0  0
    6.4736    4.3757    0.0000 C   0  0  0  0  0  0  0  0  0  0  0  0
    7.9737    4.3757    0.0000 O   0  0  0  0  0  0  0  0  0  0  0  0
    8.7237    3.0767    0.0000 C   0  0  0  0  0  0  0  0  0  0  0  0
   10.2237    3.0767    0.0000 C   0  0  0  0  0  0  0  0  0  0  0  0
   10.9737    1.7776    0.0000 O   0  0  0  0  0  0  0  0  0  0  0  0
   10.9737    4.3757    0.0000 O   0  0  0  0  0  0  0  0  0  0  0  0
    5.7236    5.6747    0.0000 C   0  0  0  0  0  0  0  0  0  0  0  0
    6.4736    6.9738    0.0000 Cl  0  0  0  0  0  0  0  0  0  0  0  0
    4.2238    5.6747    0.0000 C   0  0  0  0  0  0  0  0  0  0  0  0
    3.4738    6.9738    0.0000 Cl  0  0  0  0  0  0  0  0  0  0  0  0
  1  2  1  0  0  0  0
  2  3  1  0  0  0  0
  3  4  2  0  0  0  0
  3  5  1  0  0  0  0
  5  6  2  0  0  0  0
  5  7  1  0  0  0  0
  8  7  2  0  0  0  0
  7 18  1  0  0  0  0
  9  8  1  0  0  0  0
 10  9  2  0  0  0  0
 10 11  1  0  0  0  0
 16 10  1  0  0  0  0
 11 12  1  0  0  0  0
 12 13  1  0  0  0  0
 13 14  2  0  0  0  0
 13 15  1  0  0  0  0
 16 17  1  0  0  0  0
 18 16  2  0  0  0  0
 18 19  1  0  0  0  0
M  END
> <Inchi_key>
AVOLMBLBETYQHX-UHFFFAOYSA-N

> <Source>
Mulliner , Kotsampasakou

> <ID>
EK0202;HT0802

> <H_MFHB>
0

> <CAS>


> <Cholestasis>
0

> <Name>
ethacrynic acid;etacrynic acid

> <Class>
0


$$$$