
  -INDIGO-08031710012D

 27 29  0  0  0  0  0  0  0  0999 V2000
    2.3612    4.0896    0.0000 C   0  0  0  0  0  0  0  0  0  0  0  0
    3.1112    2.7904    0.0000 C   0  0  0  0  0  0  0  0  0  0  0  0
    4.6111    2.7904    0.0000 C   0  0  0  0  0  0  0  0  0  0  0  0
    5.3610    4.0896    0.0000 C   0  0  0  0  0  0  0  0  0  0  0  0
    6.8611    4.0896    0.0000 C   0  0  0  0  0  0  0  0  0  0  0  0
    7.6111    5.3886    0.0000 C   0  0  0  0  0  0  0  0  0  0  0  0
    6.8611    6.6876    0.0000 C   0  0  0  0  0  0  0  0  0  0  0  0
    5.3610    6.6876    0.0000 C   0  0  0  0  0  0  0  0  0  0  0  0
    4.6111    5.3886    0.0000 C   0  0  0  0  0  0  0  0  0  0  0  0
    2.3612    1.4916    0.0000 N   0  0  0  0  0  0  0  0  0  0  0  0
    3.1112    0.1926    0.0000 C   0  0  0  0  0  0  0  0  0  0  0  0
    0.8611    1.4916    0.0000 C   0  0  0  0  0  0  0  0  0  0  0  0
    0.1111    2.7904    0.0000 O   0  0  0  0  0  0  0  0  0  0  0  0
    0.1111    0.1926    0.0000 C   0  0  0  0  0  0  0  0  0  0  0  0
   -1.3890    0.1926    0.0000 N   0  0  0  0  0  0  0  0  0  0  0  0
   -2.1390    1.4916    0.0000 N   0  0  0  0  0  0  0  0  0  0  0  0
   -3.6389    1.4916    0.0000 C   0  0  0  0  0  0  0  0  0  0  0  0
   -4.3888    0.1926    0.0000 C   0  0  0  0  0  0  0  0  0  0  0  0
   -3.6389   -1.1066    0.0000 C   0  0  0  0  0  0  0  0  0  0  0  0
   -2.1390   -1.1066    0.0000 C   0  0  0  0  0  0  0  0  0  0  0  0
   -1.3890   -2.4056    0.0000 O   0  0  0  0  0  0  0  0  0  0  0  0
   -4.3888    2.7904    0.0000 C   0  0  0  0  0  0  0  0  0  0  0  0
   -5.8889    2.7904    0.0000 C   0  0  0  0  0  0  0  0  0  0  0  0
   -6.6389    4.0896    0.0000 C   0  0  0  0  0  0  0  0  0  0  0  0
   -5.8889    5.3886    0.0000 C   0  0  0  0  0  0  0  0  0  0  0  0
   -4.3888    5.3886    0.0000 C   0  0  0  0  0  0  0  0  0  0  0  0
   -3.6389    4.0896    0.0000 C   0  0  0  0  0  0  0  0  0  0  0  0
  1  2  1  0  0  0  0
  2  3  1  0  0  0  0
  2 10  1  0  0  0  0
  3  4  1  0  0  0  0
  5  4  2  0  0  0  0
  4  9  1  0  0  0  0
  6  5  1  0  0  0  0
  7  6  2  0  0  0  0
  8  7  1  0  0  0  0
  9  8  2  0  0  0  0
 10 11  1  0  0  0  0
 10 12  1  0  0  0  0
 12 13  2  0  0  0  0
 12 14  1  0  0  0  0
 14 15  1  0  0  0  0
 16 15  1  0  0  0  0
 15 20  1  0  0  0  0
 17 16  2  0  0  0  0
 18 17  1  0  0  0  0
 17 22  1  0  0  0  0
 19 18  2  0  0  0  0
 20 19  1  0  0  0  0
 20 21  2  0  0  0  0
 23 22  2  0  0  0  0
 22 27  1  0  0  0  0
 24 23  1  0  0  0  0
 25 24  2  0  0  0  0
 26 25  1  0  0  0  0
 27 26  2  0  0  0  0
M  END
> <Inchi_key>
JKNDAGNFBPJGEF-UHFFFAOYSA-N

> <Source>
Mulliner

> <ID>
HT3648

> <H_MFHB>
0

> <CAS>


> <Cholestasis>


> <Name>


> <Class>
0

$$$$