

  -INDIGO-08031710012D

 22 23  0  0  0  0  0  0  0  0999 V2000
    2.8106    0.8030    0.0000 C   0  0  0  0  0  0  0  0  0  0  0  0
    2.8106   -0.6970    0.0000 C   0  0  0  0  0  0  0  0  0  0  0  0
    4.1096   -1.4470    0.0000 C   0  0  0  0  0  0  0  0  0  0  0  0
    5.4086   -0.6970    0.0000 C   0  0  0  0  0  0  0  0  0  0  0  0
    6.7078   -1.4470    0.0000 C   0  0  0  0  0  0  0  0  0  0  0  0
    8.0068   -0.6970    0.0000 C   0  0  0  0  0  0  0  0  0  0  0  0
    9.3058   -1.4470    0.0000 C   0  0  0  0  0  0  0  0  0  0  0  0
    9.3058   -2.9470    0.0000 C   0  0  0  0  0  0  0  0  0  0  0  0
   10.6048   -3.6970    0.0000 O   0  0  0  0  0  0  0  0  0  0  0  0
    8.0068   -3.6970    0.0000 C   0  0  0  0  0  0  0  0  0  0  0  0
    6.7078   -2.9470    0.0000 C   0  0  0  0  0  0  0  0  0  0  0  0
    1.5116   -1.4470    0.0000 N   0  0  0  0  0  0  0  0  0  0  0  0
    0.2126   -0.6970    0.0000 C   0  0  0  0  0  0  0  0  0  0  0  0
   -1.0864   -1.4470    0.0000 C   0  0  0  0  0  0  0  0  0  0  0  0
   -2.3856   -0.6970    0.0000 C   0  0  0  0  0  0  0  0  0  0  0  0
   -2.3856    0.8030    0.0000 C   0  0  0  0  0  0  0  0  0  0  0  0
   -3.6846    1.5530    0.0000 C   0  0  0  0  0  0  0  0  0  0  0  0
   -4.9836    0.8030    0.0000 C   0  0  0  0  0  0  0  0  0  0  0  0
   -6.2826    1.5530    0.0000 O   0  0  0  0  0  0  0  0  0  0  0  0
   -4.9836   -0.6970    0.0000 C   0  0  0  0  0  0  0  0  0  0  0  0
   -6.2826   -1.4470    0.0000 O   0  0  0  0  0  0  0  0  0  0  0  0
   -3.6846   -1.4470    0.0000 C   0  0  0  0  0  0  0  0  0  0  0  0
  1  2  1  0  0  0  0
  2  3  1  0  0  0  0
  2 12  1  0  0  0  0
  3  4  1  0  0  0  0
  4  5  1  0  0  0  0
  6  5  2  0  0  0  0
  5 11  1  0  0  0  0
  7  6  1  0  0  0  0
  8  7  2  0  0  0  0
  8  9  1  0  0  0  0
 10  8  1  0  0  0  0
 11 10  2  0  0  0  0
 12 13  1  0  0  0  0
 13 14  1  0  0  0  0
 14 15  1  0  0  0  0
 16 15  2  0  0  0  0
 15 22  1  0  0  0  0
 17 16  1  0  0  0  0
 18 17  2  0  0  0  0
 18 19  1  0  0  0  0
 20 18  1  0  0  0  0
 20 21  1  0  0  0  0
 22 20  2  0  0  0  0
M  END
> <Inchi_key>
JRWZLRBJNMZMFE-UHFFFAOYSA-N

> <Source>
Mulliner , Kotsampasakou

> <ID>
EK0170;HT0701

> <H_MFHB>
0

> <CAS>


> <Cholestasis>
0

> <Name>
dobutamine hydrochloride;dobutamine

> <Class>
0


$$$$