
  -INDIGO-08031709442D

 78 81  0  0  0  0  0  0  0  0999 V2000
   -0.4587   -0.4586    0.0000 S   0  0  0  0  0  0  0  0  0  0  0  0
   -0.4587   -1.9586    0.0000 C   0  0  0  0  0  0  0  0  0  0  0  0
    0.8402   -2.7086    0.0000 C   0  0  0  0  0  0  0  0  0  0  0  0
    0.8402   -4.2087    0.0000 C   0  0  0  0  0  0  0  0  0  0  0  0
    2.1396   -4.9587    0.0000 N   0  0  0  0  0  0  0  0  0  0  0  0
    2.1396   -6.4587    0.0000 C   0  0  0  0  0  0  0  0  0  0  0  0
    0.8402   -7.2087    0.0000 O   0  0  0  0  0  0  0  0  0  0  0  0
    3.4385   -7.2087    0.0000 C   0  0  0  0  0  0  0  0  0  0  0  0
    4.7374   -6.4587    0.0000 N   0  0  0  0  0  0  0  0  0  0  0  0
    6.0368   -7.2087    0.0000 C   0  0  0  0  0  0  0  0  0  0  0  0
    6.0368   -8.7087    0.0000 O   0  0  0  0  0  0  0  0  0  0  0  0
    7.3357   -6.4587    0.0000 C   0  0  0  0  0  0  0  0  0  0  0  0
    8.6346   -7.2087    0.0000 N   0  0  0  0  0  0  0  0  0  0  0  0
    9.9335   -6.4587    0.0000 C   0  0  0  0  0  0  0  0  0  0  0  0
    9.9335   -4.9587    0.0000 O   0  0  0  0  0  0  0  0  0  0  0  0
   11.2329   -7.2087    0.0000 C   0  0  0  0  0  0  0  0  0  0  0  0
   12.5318   -6.4587    0.0000 N   0  0  0  0  0  0  0  0  0  0  0  0
   13.8307   -7.2087    0.0000 C   0  0  0  0  0  0  0  0  0  0  0  0
   13.8307   -8.7087    0.0000 O   0  0  0  0  0  0  0  0  0  0  0  0
   15.1296   -6.4587    0.0000 C   0  0  0  0  0  0  0  0  0  0  0  0
   16.4290   -7.2087    0.0000 N   0  0  0  0  0  0  0  0  0  0  0  0
   16.4290   -8.7087    0.0000 C   0  0  0  0  0  0  0  0  0  0  0  0
   15.1296   -9.4585    0.0000 O   0  0  0  0  0  0  0  0  0  0  0  0
   17.7279   -9.4585    0.0000 C   0  0  0  0  0  0  0  0  0  0  0  0
   17.7279  -10.9585    0.0000 N   0  0  0  0  0  0  0  0  0  0  0  0
   19.0268   -8.7087    0.0000 C   0  0  0  0  0  0  0  0  0  0  0  0
   20.3262   -9.4585    0.0000 C   0  0  0  0  0  0  0  0  0  0  0  0
   21.6251   -8.7087    0.0000 O   0  0  0  0  0  0  0  0  0  0  0  0
   20.3262  -10.9585    0.0000 O   0  0  0  0  0  0  0  0  0  0  0  0
   15.1296   -4.9587    0.0000 C   0  0  0  0  0  0  0  0  0  0  0  0
   16.4290   -4.2087    0.0000 C   0  0  0  0  0  0  0  0  0  0  0  0
   17.7279   -4.9587    0.0000 C   0  0  0  0  0  0  0  0  0  0  0  0
   19.0268   -4.2087    0.0000 C   0  0  0  0  0  0  0  0  0  0  0  0
   19.0268   -2.7086    0.0000 C   0  0  0  0  0  0  0  0  0  0  0  0
   20.3262   -1.9586    0.0000 O   0  0  0  0  0  0  0  0  0  0  0  0
   20.3262   -0.4586    0.0000 S   0  0  0  0  0  0  0  0  0  0  0  0
   18.8258   -0.4586    0.0000 O   0  0  0  0  0  0  0  0  0  0  0  0
   21.8260   -0.4586    0.0000 O   0  0  0  0  0  0  0  0  0  0  0  0
   20.3262    1.0414    0.0000 O   0  0  0  0  0  0  0  0  0  0  0  0
   17.7279   -1.9586    0.0000 C   0  0  0  0  0  0  0  0  0  0  0  0
   16.4290   -2.7086    0.0000 C   0  0  0  0  0  0  0  0  0  0  0  0
   11.2329   -8.7087    0.0000 C   0  0  0  0  0  0  0  0  0  0  0  0
    9.9335   -9.4585    0.0000 C   0  0  0  0  0  0  0  0  0  0  0  0
    9.9335  -10.9585    0.0000 S   0  0  0  0  0  0  0  0  0  0  0  0
    8.6346  -11.7085    0.0000 C   0  0  0  0  0  0  0  0  0  0  0  0
    3.4385   -8.7087    0.0000 C   0  0  0  0  0  0  0  0  0  0  0  0
    2.1396   -9.4585    0.0000 C   0  0  0  0  0  0  0  0  0  0  0  0
    1.9825  -10.9504    0.0000 C   0  0  0  0  0  0  0  0  0  0  0  0
    0.5156  -11.2623    0.0000 C   0  0  0  0  0  0  0  0  0  0  0  0
   -0.2348   -9.9632    0.0000 N   0  0  0  0  0  0  0  0  0  0  0  0
    0.7689   -8.8485    0.0000 C   0  0  0  0  0  0  0  0  0  0  0  0
    0.0519  -12.6889    0.0000 C   0  0  0  0  0  0  0  0  0  0  0  0
    1.0556  -13.8036    0.0000 C   0  0  0  0  0  0  0  0  0  0  0  0
    2.5230  -13.4917    0.0000 C   0  0  0  0  0  0  0  0  0  0  0  0
    2.9862  -12.0651    0.0000 C   0  0  0  0  0  0  0  0  0  0  0  0
   -0.4587   -4.9587    0.0000 C   0  0  0  0  0  0  0  0  0  0  0  0
   -0.4587   -6.4587    0.0000 O   0  0  0  0  0  0  0  0  0  0  0  0
   -1.7576   -4.2087    0.0000 N   0  0  0  0  0  0  0  0  0  0  0  0
   -3.0565   -4.9587    0.0000 C   0  0  0  0  0  0  0  0  0  0  0  0
   -3.0565   -6.4587    0.0000 C   0  0  0  0  0  0  0  0  0  0  0  0
   -4.3559   -7.2087    0.0000 C   0  0  0  0  0  0  0  0  0  0  0  0
   -5.6548   -6.4587    0.0000 O   0  0  0  0  0  0  0  0  0  0  0  0
   -4.3559   -8.7087    0.0000 O   0  0  0  0  0  0  0  0  0  0  0  0
   -4.3559   -4.2087    0.0000 C   0  0  0  0  0  0  0  0  0  0  0  0
   -4.3559   -2.7086    0.0000 O   0  0  0  0  0  0  0  0  0  0  0  0
   -5.6548   -4.9587    0.0000 N   0  0  0  0  0  0  0  0  0  0  0  0
   -6.9537   -4.2087    0.0000 C   0  0  0  0  0  0  0  0  0  0  0  0
   -6.9537   -2.7086    0.0000 C   0  0  0  0  0  0  0  0  0  0  0  0
   -8.2531   -1.9586    0.0000 C   0  0  0  0  0  0  0  0  0  0  0  0
   -8.2531   -0.4586    0.0000 C   0  0  0  0  0  0  0  0  0  0  0  0
   -9.5520    0.2914    0.0000 C   0  0  0  0  0  0  0  0  0  0  0  0
  -10.8509   -0.4586    0.0000 C   0  0  0  0  0  0  0  0  0  0  0  0
  -10.8509   -1.9586    0.0000 C   0  0  0  0  0  0  0  0  0  0  0  0
   -9.5520   -2.7086    0.0000 C   0  0  0  0  0  0  0  0  0  0  0  0
   -8.2531   -4.9587    0.0000 C   0  0  0  0  0  0  0  0  0  0  0  0
   -9.5520   -4.2087    0.0000 O   0  0  0  0  0  0  0  0  0  0  0  0
   -8.2531   -6.4587    0.0000 N   0  0  0  0  0  0  0  0  0  0  0  0
    0.8402    0.2914    0.0000 C   0  0  0  0  0  0  0  0  0  0  0  0
  1  2  1  0  0  0  0
  1 78  1  0  0  0  0
  2  3  1  0  0  0  0
  3  4  1  0  0  0  0
  4  5  1  0  0  0  0
  4 56  1  0  0  0  0
  5  6  1  0  0  0  0
  6  7  2  0  0  0  0
  6  8  1  0  0  0  0
  8  9  1  0  0  0  0
  8 46  1  0  0  0  0
  9 10  1  0  0  0  0
 10 11  2  0  0  0  0
 10 12  1  0  0  0  0
 12 13  1  0  0  0  0
 13 14  1  0  0  0  0
 14 15  2  0  0  0  0
 14 16  1  0  0  0  0
 16 17  1  0  0  0  0
 16 42  1  0  0  0  0
 17 18  1  0  0  0  0
 18 19  2  0  0  0  0
 18 20  1  0  0  0  0
 20 21  1  0  0  0  0
 20 30  1  0  0  0  0
 21 22  1  0  0  0  0
 22 23  2  0  0  0  0
 22 24  1  0  0  0  0
 24 25  1  0  0  0  0
 24 26  1  0  0  0  0
 26 27  1  0  0  0  0
 27 28  1  0  0  0  0
 27 29  2  0  0  0  0
 30 31  1  0  0  0  0
 32 31  2  0  0  0  0
 31 41  1  0  0  0  0
 33 32  1  0  0  0  0
 34 33  2  0  0  0  0
 34 35  1  0  0  0  0
 40 34  1  0  0  0  0
 35 36  1  0  0  0  0
 36 37  2  0  0  0  0
 36 38  2  0  0  0  0
 36 39  1  0  0  0  0
 41 40  2  0  0  0  0
 42 43  1  0  0  0  0
 43 44  1  0  0  0  0
 44 45  1  0  0  0  0
 46 47  1  0  0  0  0
 48 47  1  0  0  0  0
 47 51  2  0  0  0  0
 48 49  2  0  0  0  0
 55 48  1  0  0  0  0
 50 49  1  0  0  0  0
 49 52  1  0  0  0  0
 51 50  1  0  0  0  0
 52 53  2  0  0  0  0
 53 54  1  0  0  0  0
 54 55  2  0  0  0  0
 56 57  2  0  0  0  0
 56 58  1  0  0  0  0
 58 59  1  0  0  0  0
 59 60  1  0  0  0  0
 59 64  1  0  0  0  0
 60 61  1  0  0  0  0
 61 62  1  0  0  0  0
 61 63  2  0  0  0  0
 64 65  2  0  0  0  0
 64 66  1  0  0  0  0
 66 67  1  0  0  0  0
 67 68  1  0  0  0  0
 67 75  1  0  0  0  0
 68 69  1  0  0  0  0
 70 69  2  0  0  0  0
 69 74  1  0  0  0  0
 71 70  1  0  0  0  0
 72 71  2  0  0  0  0
 73 72  1  0  0  0  0
 74 73  2  0  0  0  0
 75 76  2  0  0  0  0
 75 77  1  0  0  0  0
M  END
> <Inchi_key>
IZTQOLKUZKXIRV-UHFFFAOYSA-N

> <Source>
Kotsampasakou

> <ID>
EK0481

> <H_MFHB>


> <CAS>


> <Cholestasis>
0

> <Name>
sincalide

> <Class>
0

$$$$