

  -INDIGO-08031710012D

 23 24  0  0  0  0  0  0  0  0999 V2000
    1.3828   -4.9396    0.0000 O   0  0  0  0  0  0  0  0  0  0  0  0
    2.6646   -4.1608    0.0000 C   0  0  0  0  0  0  0  0  0  0  0  0
    2.6313   -2.6612    0.0000 C   0  0  0  0  0  0  0  0  0  0  0  0
    3.9133   -1.8825    0.0000 O   0  0  0  0  0  0  0  0  0  0  0  0
    3.8798   -0.3828    0.0000 C   0  0  0  0  0  0  0  0  0  0  0  0
    5.1619    0.3959    0.0000 O   0  0  0  0  0  0  0  0  0  0  0  0
    6.4772   -0.3250    0.0000 C   0  0  0  0  0  0  0  0  0  0  0  0
    7.8336    0.3155    0.0000 C   0  0  0  0  0  0  0  0  0  0  0  0
    8.1127    1.7893    0.0000 C   0  0  0  0  0  0  0  0  0  0  0  0
    9.5287    2.2845    0.0000 O   0  0  0  0  0  0  0  0  0  0  0  0
    8.8620   -0.7766    0.0000 O   0  0  0  0  0  0  0  0  0  0  0  0
    8.1411   -2.0920    0.0000 C   0  0  0  0  0  0  0  0  0  0  0  0
    7.9395   -3.5784    0.0000 O   0  0  0  0  0  0  0  0  0  0  0  0
    9.3590   -2.9678    0.0000 C   0  0  0  0  0  0  0  0  0  0  0  0
   10.7262   -2.3511    0.0000 O   0  0  0  0  0  0  0  0  0  0  0  0
    6.6673   -1.8128    0.0000 C   0  0  0  0  0  0  0  0  0  0  0  0
    5.5753   -2.8412    0.0000 O   0  0  0  0  0  0  0  0  0  0  0  0
    2.5645    0.3380    0.0000 C   0  0  0  0  0  0  0  0  0  0  0  0
    2.5312    1.8377    0.0000 O   0  0  0  0  0  0  0  0  0  0  0  0
    1.2825   -0.4407    0.0000 C   0  0  0  0  0  0  0  0  0  0  0  0
   -0.0329    0.2802    0.0000 O   0  0  0  0  0  0  0  0  0  0  0  0
    1.3159   -1.9403    0.0000 C   0  0  0  0  0  0  0  0  0  0  0  0
    0.0339   -2.7191    0.0000 O   0  0  0  0  0  0  0  0  0  0  0  0
  1  2  1  0  0  0  0
  2  3  1  0  0  0  0
  4  3  1  0  0  0  0
  3 22  1  0  0  0  0
  5  4  1  0  0  0  0
  5  6  1  0  0  0  0
 18  5  1  0  0  0  0
  6  7  1  0  0  0  0
  8  7  1  0  0  0  0
  7 16  1  0  0  0  0
  8  9  1  0  0  0  0
 11  8  1  0  0  0  0
  9 10  1  0  0  0  0
 12 11  1  0  0  0  0
 12 13  1  0  0  0  0
 12 14  1  0  0  0  0
 16 12  1  0  0  0  0
 14 15  1  0  0  0  0
 16 17  1  0  0  0  0
 18 19  1  0  0  0  0
 20 18  1  0  0  0  0
 20 21  1  0  0  0  0
 22 20  1  0  0  0  0
 22 23  1  0  0  0  0
M  END
> <Inchi_key>
JCQLYHFGKNRPGE-UHFFFAOYSA-N

> <Source>
Mulliner

> <ID>
HT1166

> <H_MFHB>
0

> <CAS>


> <Cholestasis>


> <Name>
lactulose

> <Class>
0


$$$$