
  -INDIGO-08031710012D

 12 13  0  0  0  0  0  0  0  0999 V2000
    0.7040   -0.0293    0.0000 C   0  0  0  0  0  0  0  0  0  0  0  0
    2.0029    0.7207    0.0000 C   0  0  0  0  0  0  0  0  0  0  0  0
    2.1598    2.2125    0.0000 N   0  0  0  0  0  0  0  0  0  0  0  0
    3.6271    2.5244    0.0000 C   0  0  0  0  0  0  0  0  0  0  0  0
    4.3771    1.2253    0.0000 C   0  0  0  0  0  0  0  0  0  0  0  0
    3.3734    0.1106    0.0000 N   0  0  0  0  0  0  0  0  0  0  0  0
   -0.5950    0.7207    0.0000 C   0  0  0  0  0  0  0  0  0  0  0  0
   -1.8941   -0.0293    0.0000 C   0  0  0  0  0  0  0  0  0  0  0  0
   -3.1931    0.7207    0.0000 C   0  0  0  0  0  0  0  0  0  0  0  0
   -3.1931    2.2207    0.0000 C   0  0  0  0  0  0  0  0  0  0  0  0
   -1.8941    2.9707    0.0000 C   0  0  0  0  0  0  0  0  0  0  0  0
   -0.5950    2.2207    0.0000 C   0  0  0  0  0  0  0  0  0  0  0  0
  1  2  1  0  0  0  0
  1  7  1  0  0  0  0
  3  2  2  0  0  0  0
  2  6  1  0  0  0  0
  4  3  1  0  0  0  0
  5  4  1  0  0  0  0
  6  5  1  0  0  0  0
  8  7  2  0  0  0  0
  7 12  1  0  0  0  0
  9  8  1  0  0  0  0
 10  9  2  0  0  0  0
 11 10  1  0  0  0  0
 12 11  2  0  0  0  0
M  END
> <Inchi_key>
JIVZKJJQOZQXQB-UHFFFAOYSA-N

> <Source>
Mulliner , Kotsampasakou

> <ID>
EK0535;HT2080

> <H_MFHB>
0

> <CAS>


> <Cholestasis>
0

> <Name>
tolazoline hydrochloride;tolazoline

> <Class>
0

$$$$