

  -INDIGO-08031710012D

 28 31  0  0  0  0  0  0  0  0999 V2000
    0.9817   -0.7133    0.0000 O   0  0  0  0  0  0  0  0  0  0  0  0
    0.5182    0.7133    0.0000 C   0  0  0  0  0  0  0  0  0  0  0  0
    1.3998    1.9268    0.0000 C   0  0  0  0  0  0  0  0  0  0  0  0
    0.5182    3.1403    0.0000 N   0  0  0  0  0  0  0  0  0  0  0  0
   -0.9084    2.6768    0.0000 C   0  0  0  0  0  0  0  0  0  0  0  0
   -2.2075    3.4268    0.0000 C   0  0  0  0  0  0  0  0  0  0  0  0
   -3.5063    2.6768    0.0000 C   0  0  0  0  0  0  0  0  0  0  0  0
   -3.5063    1.1768    0.0000 C   0  0  0  0  0  0  0  0  0  0  0  0
   -2.2075    0.4268    0.0000 C   0  0  0  0  0  0  0  0  0  0  0  0
   -0.9084    1.1768    0.0000 C   0  0  0  0  0  0  0  0  0  0  0  0
   -4.8054    0.4268    0.0000 S   0  0  0  0  0  0  0  0  0  0  0  0
   -4.0555   -0.8722    0.0000 O   0  0  0  0  0  0  0  0  0  0  0  0
   -5.5556    1.7259    0.0000 O   0  0  0  0  0  0  0  0  0  0  0  0
   -6.1045   -0.3232    0.0000 O   0  0  0  0  0  0  0  0  0  0  0  0
    2.9000    1.9268    0.0000 C   0  0  0  0  0  0  0  0  0  0  0  0
    3.7816    0.7133    0.0000 N   0  0  0  0  0  0  0  0  0  0  0  0
    5.2082    1.1768    0.0000 C   0  0  0  0  0  0  0  0  0  0  0  0
    6.5073    0.4268    0.0000 C   0  0  0  0  0  0  0  0  0  0  0  0
    7.8064    1.1768    0.0000 C   0  0  0  0  0  0  0  0  0  0  0  0
    7.8064    2.6768    0.0000 C   0  0  0  0  0  0  0  0  0  0  0  0
    6.5073    3.4268    0.0000 C   0  0  0  0  0  0  0  0  0  0  0  0
    5.2082    2.6768    0.0000 C   0  0  0  0  0  0  0  0  0  0  0  0
    3.7816    3.1403    0.0000 C   0  0  0  0  0  0  0  0  0  0  0  0
    3.3181    4.5669    0.0000 O   0  0  0  0  0  0  0  0  0  0  0  0
    9.1052    3.4268    0.0000 S   0  0  0  0  0  0  0  0  0  0  0  0
    8.3553    4.7259    0.0000 O   0  0  0  0  0  0  0  0  0  0  0  0
    9.8554    2.1278    0.0000 O   0  0  0  0  0  0  0  0  0  0  0  0
   10.4043    4.1768    0.0000 O   0  0  0  0  0  0  0  0  0  0  0  0
  1  2  1  0  0  0  0
  3  2  2  0  0  0  0
  2 10  1  0  0  0  0
  4  3  1  0  0  0  0
  3 15  1  0  0  0  0
  5  4  1  0  0  0  0
  6  5  1  0  0  0  0
  5 10  2  0  0  0  0
  7  6  2  0  0  0  0
  8  7  1  0  0  0  0
  9  8  2  0  0  0  0
  8 11  1  0  0  0  0
 10  9  1  0  0  0  0
 11 12  2  0  0  0  0
 11 13  2  0  0  0  0
 11 14  1  0  0  0  0
 16 15  2  0  0  0  0
 15 23  1  0  0  0  0
 17 16  1  0  0  0  0
 18 17  1  0  0  0  0
 17 22  2  0  0  0  0
 19 18  2  0  0  0  0
 20 19  1  0  0  0  0
 21 20  2  0  0  0  0
 20 25  1  0  0  0  0
 22 21  1  0  0  0  0
 23 22  1  0  0  0  0
 23 24  2  0  0  0  0
 25 26  2  0  0  0  0
 25 27  2  0  0  0  0
 25 28  1  0  0  0  0
M  END
> <Inchi_key>
JMEVHYCNAPFOAB-UHFFFAOYSA-N

> <Source>
Mulliner

> <ID>
HT1092

> <H_MFHB>
0

> <CAS>


> <Cholestasis>


> <Name>
indigotindisulfonate sodium

> <Class>
0


$$$$