

  -INDIGO-08031710012D

 13 13  0  0  0  0  0  0  0  0999 V2000
    6.1154    2.9978    0.0000 C   0  0  0  0  0  0  0  0  0  0  0  0
    4.6154    2.9978    0.0000 O   0  0  0  0  0  0  0  0  0  0  0  0
    3.8654    1.6987    0.0000 C   0  0  0  0  0  0  0  0  0  0  0  0
    4.6154    0.3997    0.0000 C   0  0  0  0  0  0  0  0  0  0  0  0
    6.1154    0.3997    0.0000 Cl  0  0  0  0  0  0  0  0  0  0  0  0
    3.8654   -0.8993    0.0000 C   0  0  0  0  0  0  0  0  0  0  0  0
    2.3654   -0.8993    0.0000 C   0  0  0  0  0  0  0  0  0  0  0  0
    1.6154    0.3997    0.0000 C   0  0  0  0  0  0  0  0  0  0  0  0
    0.1154    0.3997    0.0000 Cl  0  0  0  0  0  0  0  0  0  0  0  0
    2.3654    1.6987    0.0000 C   0  0  0  0  0  0  0  0  0  0  0  0
    1.6154    2.9978    0.0000 C   0  0  0  0  0  0  0  0  0  0  0  0
    0.1154    2.9978    0.0000 O   0  0  0  0  0  0  0  0  0  0  0  0
    2.3654    4.2968    0.0000 O   0  0  0  0  0  0  0  0  0  0  0  0
  1  2  1  0  0  0  0
  2  3  1  0  0  0  0
  4  3  2  0  0  0  0
  3 10  1  0  0  0  0
  4  5  1  0  0  0  0
  6  4  1  0  0  0  0
  7  6  2  0  0  0  0
  8  7  1  0  0  0  0
  8  9  1  0  0  0  0
 10  8  2  0  0  0  0
 10 11  1  0  0  0  0
 11 12  2  0  0  0  0
 11 13  1  0  0  0  0
M  END
> <Inchi_key>
IWEDIXLBFLAXBO-UHFFFAOYSA-N

> <Source>
Mulliner

> <ID>
HT2953

> <H_MFHB>
0

> <CAS>


> <Cholestasis>


> <Name>


> <Class>
0


$$$$