

  -INDIGO-08031710012D

 21 22  0  0  0  0  0  0  0  0999 V2000
   11.4052   -6.5848    0.0000 C   0  0  0  0  0  0  0  0  0  0  0  0
   10.6551   -5.2857    0.0000 C   0  0  0  0  0  0  0  0  0  0  0  0
    9.9050   -3.9867    0.0000 C   0  0  0  0  0  0  0  0  0  0  0  0
   11.9542   -4.5357    0.0000 C   0  0  0  0  0  0  0  0  0  0  0  0
    9.3562   -6.0357    0.0000 N   0  0  0  0  0  0  0  0  0  0  0  0
    8.0571   -5.2857    0.0000 C   0  0  0  0  0  0  0  0  0  0  0  0
    6.7580   -6.0357    0.0000 C   0  0  0  0  0  0  0  0  0  0  0  0
    6.7580   -7.5357    0.0000 O   0  0  0  0  0  0  0  0  0  0  0  0
    5.4589   -5.2857    0.0000 C   0  0  0  0  0  0  0  0  0  0  0  0
    4.1600   -6.0357    0.0000 O   0  0  0  0  0  0  0  0  0  0  0  0
    2.8609   -5.2857    0.0000 C   0  0  0  0  0  0  0  0  0  0  0  0
    2.8609   -3.7857    0.0000 C   0  0  0  0  0  0  0  0  0  0  0  0
    1.5618   -3.0357    0.0000 C   0  0  0  0  0  0  0  0  0  0  0  0
    0.2627   -3.7857    0.0000 C   0  0  0  0  0  0  0  0  0  0  0  0
    0.2627   -5.2857    0.0000 C   0  0  0  0  0  0  0  0  0  0  0  0
   -1.0362   -6.0357    0.0000 C   0  0  0  0  0  0  0  0  0  0  0  0
   -2.3353   -5.2857    0.0000 O   0  0  0  0  0  0  0  0  0  0  0  0
   -1.0362   -7.5357    0.0000 C   0  0  0  0  0  0  0  0  0  0  0  0
    0.2627   -8.2857    0.0000 C   0  0  0  0  0  0  0  0  0  0  0  0
    1.5618   -7.5357    0.0000 C   0  0  0  0  0  0  0  0  0  0  0  0
    1.5618   -6.0357    0.0000 C   0  0  0  0  0  0  0  0  0  0  0  0
  1  2  1  0  0  0  0
  2  3  1  0  0  0  0
  2  4  1  0  0  0  0
  2  5  1  0  0  0  0
  5  6  1  0  0  0  0
  6  7  1  0  0  0  0
  7  8  1  0  0  0  0
  7  9  1  0  0  0  0
  9 10  1  0  0  0  0
 10 11  1  0  0  0  0
 12 11  2  0  0  0  0
 11 21  1  0  0  0  0
 13 12  1  0  0  0  0
 14 13  2  0  0  0  0
 15 14  1  0  0  0  0
 16 15  1  0  0  0  0
 15 21  2  0  0  0  0
 16 17  2  0  0  0  0
 18 16  1  0  0  0  0
 19 18  1  0  0  0  0
 20 19  1  0  0  0  0
 21 20  1  0  0  0  0
M  END
> <Inchi_key>
IXHBTMCLRNMKHZ-UHFFFAOYSA-N

> <Source>
Mulliner , Kotsampasakou

> <ID>
EK0298;HT1193

> <H_MFHB>
0

> <CAS>


> <Cholestasis>
0

> <Name>
levobunolol;levobunolol hydrochloride

> <Class>
0


$$$$