

  -INDIGO-08031710012D

 21 23  0  0  0  0  0  0  0  0999 V2000
    2.5599    0.9827    0.0000 N   0  0  0  0  0  0  0  0  0  0  0  0
    1.4453   -0.0210    0.0000 C   0  0  0  0  0  0  0  0  0  0  0  0
    0.0187    0.4425    0.0000 O   0  0  0  0  0  0  0  0  0  0  0  0
    1.7573   -1.4882    0.0000 N   0  0  0  0  0  0  0  0  0  0  0  0
    3.1275   -2.0983    0.0000 C   0  0  0  0  0  0  0  0  0  0  0  0
    4.4265   -1.3483    0.0000 O   0  0  0  0  0  0  0  0  0  0  0  0
    2.9707   -3.5902    0.0000 C   0  0  0  0  0  0  0  0  0  0  0  0
    4.0854   -4.5938    0.0000 C   0  0  0  0  0  0  0  0  0  0  0  0
    3.7737   -6.0610    0.0000 O   0  0  0  0  0  0  0  0  0  0  0  0
    5.5121   -4.1303    0.0000 C   0  0  0  0  0  0  0  0  0  0  0  0
    6.7255   -5.0119    0.0000 C   0  0  0  0  0  0  0  0  0  0  0  0
    7.9391   -4.1303    0.0000 C   0  0  0  0  0  0  0  0  0  0  0  0
    7.4755   -2.7037    0.0000 C   0  0  0  0  0  0  0  0  0  0  0  0
    5.9755   -2.7037    0.0000 S   0  0  0  0  0  0  0  0  0  0  0  0
    1.5036   -3.9020    0.0000 C   0  0  0  0  0  0  0  0  0  0  0  0
    0.7534   -5.2010    0.0000 C   0  0  0  0  0  0  0  0  0  0  0  0
   -0.7465   -5.2010    0.0000 C   0  0  0  0  0  0  0  0  0  0  0  0
   -1.4965   -6.5000    0.0000 Cl  0  0  0  0  0  0  0  0  0  0  0  0
   -1.4965   -3.9020    0.0000 C   0  0  0  0  0  0  0  0  0  0  0  0
   -0.7465   -2.6029    0.0000 C   0  0  0  0  0  0  0  0  0  0  0  0
    0.7534   -2.6029    0.0000 C   0  0  0  0  0  0  0  0  0  0  0  0
  1  2  1  0  0  0  0
  2  3  2  0  0  0  0
  2  4  1  0  0  0  0
  5  4  1  0  0  0  0
  4 21  1  0  0  0  0
  5  6  1  0  0  0  0
  7  5  2  0  0  0  0
  7  8  1  0  0  0  0
 15  7  1  0  0  0  0
  8  9  2  0  0  0  0
  8 10  1  0  0  0  0
 11 10  2  0  0  0  0
 10 14  1  0  0  0  0
 12 11  1  0  0  0  0
 13 12  2  0  0  0  0
 14 13  1  0  0  0  0
 16 15  1  0  0  0  0
 15 21  2  0  0  0  0
 17 16  2  0  0  0  0
 17 18  1  0  0  0  0
 19 17  1  0  0  0  0
 20 19  2  0  0  0  0
 21 20  1  0  0  0  0
M  END
> <Inchi_key>
IZSFDUMVCVVWKW-UHFFFAOYSA-N

> <Source>
Mulliner

> <ID>
HT2001

> <H_MFHB>
0

> <CAS>
100599-27-7

> <Cholestasis>


> <Name>
tenidap

> <Class>
0


$$$$