

  -INDIGO-08031710012D

 17 17  0  0  0  0  0  0  0  0999 V2000
    2.2774    1.6273    0.0000 C   0  0  0  0  0  0  0  0  0  0  0  0
    2.2774    0.1273    0.0000 C   0  0  0  0  0  0  0  0  0  0  0  0
    0.9783   -0.6227    0.0000 S   0  0  0  0  0  0  0  0  0  0  0  0
   -0.3206    0.1273    0.0000 C   0  0  0  0  0  0  0  0  0  0  0  0
   -0.3206    1.6273    0.0000 O   0  0  0  0  0  0  0  0  0  0  0  0
   -1.6198   -0.6227    0.0000 C   0  0  0  0  0  0  0  0  0  0  0  0
   -2.9902   -0.0126    0.0000 C   0  0  0  0  0  0  0  0  0  0  0  0
   -3.9938   -1.1273    0.0000 C   0  0  0  0  0  0  0  0  0  0  0  0
   -3.2438   -2.4263    0.0000 C   0  0  0  0  0  0  0  0  0  0  0  0
   -1.7766   -2.1144    0.0000 S   0  0  0  0  0  0  0  0  0  0  0  0
    3.5764   -0.6227    0.0000 C   0  0  0  0  0  0  0  0  0  0  0  0
    3.5764   -2.1227    0.0000 O   0  0  0  0  0  0  0  0  0  0  0  0
    4.8753    0.1273    0.0000 N   0  0  0  0  0  0  0  0  0  0  0  0
    6.1744   -0.6227    0.0000 C   0  0  0  0  0  0  0  0  0  0  0  0
    7.4736    0.1273    0.0000 C   0  0  0  0  0  0  0  0  0  0  0  0
    7.4736    1.6273    0.0000 O   0  0  0  0  0  0  0  0  0  0  0  0
    8.7725   -0.6227    0.0000 O   0  0  0  0  0  0  0  0  0  0  0  0
  1  2  1  0  0  0  0
  2  3  1  0  0  0  0
  2 11  1  0  0  0  0
  3  4  1  0  0  0  0
  4  5  2  0  0  0  0
  4  6  1  0  0  0  0
  7  6  2  0  0  0  0
  6 10  1  0  0  0  0
  8  7  1  0  0  0  0
  9  8  2  0  0  0  0
 10  9  1  0  0  0  0
 11 12  2  0  0  0  0
 11 13  1  0  0  0  0
 13 14  1  0  0  0  0
 14 15  1  0  0  0  0
 15 16  2  0  0  0  0
 15 17  1  0  0  0  0
M  END
> <Inchi_key>
JNYSEDHQJCOWQU-UHFFFAOYSA-N

> <Source>
Mulliner

> <ID>
HT1916

> <H_MFHB>
0

> <CAS>


> <Cholestasis>


> <Name>
stepronin

> <Class>
0


$$$$