
  -INDIGO-08031710012D

 21 22  0  0  0  0  0  0  0  0999 V2000
    1.4286   -2.4744    0.0000 C   0  0  0  0  0  0  0  0  0  0  0  0
    2.1785   -1.1753    0.0000 C   0  0  0  0  0  0  0  0  0  0  0  0
    3.6786   -1.1753    0.0000 C   0  0  0  0  0  0  0  0  0  0  0  0
    4.4287    0.1237    0.0000 C   0  0  0  0  0  0  0  0  0  0  0  0
    5.9285    0.1237    0.0000 O   0  0  0  0  0  0  0  0  0  0  0  0
    6.6786   -1.1753    0.0000 P   0  0  0  0  0  0  0  0  0  0  0  0
    7.4286   -2.4744    0.0000 O   0  0  0  0  0  0  0  0  0  0  0  0
    5.3795   -1.9253    0.0000 O   0  0  0  0  0  0  0  0  0  0  0  0
    7.9776   -0.4253    0.0000 O   0  0  0  0  0  0  0  0  0  0  0  0
    3.6786    1.4228    0.0000 C   0  0  0  0  0  0  0  0  0  0  0  0
    4.4287    2.7218    0.0000 C   0  0  0  0  0  0  0  0  0  0  0  0
    3.6786    4.0208    0.0000 C   0  0  0  0  0  0  0  0  0  0  0  0
    2.1785    4.0208    0.0000 C   0  0  0  0  0  0  0  0  0  0  0  0
    1.4286    2.7218    0.0000 C   0  0  0  0  0  0  0  0  0  0  0  0
    2.1785    1.4228    0.0000 C   0  0  0  0  0  0  0  0  0  0  0  0
    1.4286    0.1237    0.0000 C   0  0  0  0  0  0  0  0  0  0  0  0
   -0.0714    0.1237    0.0000 O   0  0  0  0  0  0  0  0  0  0  0  0
   -0.8214   -1.1753    0.0000 P   0  0  0  0  0  0  0  0  0  0  0  0
    0.4776   -1.9253    0.0000 O   0  0  0  0  0  0  0  0  0  0  0  0
   -1.5713   -2.4744    0.0000 O   0  0  0  0  0  0  0  0  0  0  0  0
   -2.1205   -0.4253    0.0000 O   0  0  0  0  0  0  0  0  0  0  0  0
  1  2  1  0  0  0  0
  3  2  2  0  0  0  0
  2 16  1  0  0  0  0
  4  3  1  0  0  0  0
  4  5  1  0  0  0  0
 10  4  2  0  0  0  0
  5  6  1  0  0  0  0
  6  7  2  0  0  0  0
  6  8  1  0  0  0  0
  6  9  1  0  0  0  0
 11 10  1  0  0  0  0
 10 15  1  0  0  0  0
 12 11  2  0  0  0  0
 13 12  1  0  0  0  0
 14 13  2  0  0  0  0
 15 14  1  0  0  0  0
 16 15  2  0  0  0  0
 16 17  1  0  0  0  0
 17 18  1  0  0  0  0
 18 19  2  0  0  0  0
 18 20  1  0  0  0  0
 18 21  1  0  0  0  0
M  END
> <Inchi_key>
JTNHOVZOOVVGHI-UHFFFAOYSA-N

> <Source>
Mulliner

> <ID>
HT1298

> <H_MFHB>
0

> <CAS>


> <Cholestasis>


> <Name>
menadiol sodium diphosphate

> <Class>
0

$$$$