
  -INDIGO-08031710012D

 16 17  0  0  0  0  0  0  0  0999 V2000
    2.8226    1.6296    0.0000 C   0  0  0  0  0  0  0  0  0  0  0  0
    2.0726    0.3306    0.0000 C   0  0  0  0  0  0  0  0  0  0  0  0
    2.8226   -0.9684    0.0000 C   0  0  0  0  0  0  0  0  0  0  0  0
    2.8226   -2.4684    0.0000 C   0  0  0  0  0  0  0  0  0  0  0  0
    4.1216   -3.2184    0.0000 C   0  0  0  0  0  0  0  0  0  0  0  0
    5.4207   -2.4684    0.0000 C   0  0  0  0  0  0  0  0  0  0  0  0
    6.7197   -3.2184    0.0000 O   0  0  0  0  0  0  0  0  0  0  0  0
    5.4207   -0.9684    0.0000 N   0  0  0  0  0  0  0  0  0  0  0  0
    4.1216   -0.2184    0.0000 C   0  0  0  0  0  0  0  0  0  0  0  0
    4.1216    1.2816    0.0000 O   0  0  0  0  0  0  0  0  0  0  0  0
    1.3225   -0.9684    0.0000 C   0  0  0  0  0  0  0  0  0  0  0  0
    0.5726   -2.2675    0.0000 C   0  0  0  0  0  0  0  0  0  0  0  0
   -0.9274   -2.2675    0.0000 C   0  0  0  0  0  0  0  0  0  0  0  0
   -1.6774   -0.9684    0.0000 C   0  0  0  0  0  0  0  0  0  0  0  0
   -0.9274    0.3306    0.0000 C   0  0  0  0  0  0  0  0  0  0  0  0
    0.5726    0.3306    0.0000 C   0  0  0  0  0  0  0  0  0  0  0  0
  1  2  1  0  0  0  0
  2  3  1  0  0  0  0
  4  3  1  0  0  0  0
  3  9  1  0  0  0  0
  3 11  1  0  0  0  0
  5  4  1  0  0  0  0
  6  5  1  0  0  0  0
  6  7  2  0  0  0  0
  8  6  1  0  0  0  0
  9  8  1  0  0  0  0
  9 10  2  0  0  0  0
 12 11  2  0  0  0  0
 11 16  1  0  0  0  0
 13 12  1  0  0  0  0
 14 13  2  0  0  0  0
 15 14  1  0  0  0  0
 16 15  2  0  0  0  0
M  END
> <Inchi_key>
JMBQKKAJIKAWKF-UHFFFAOYSA-N

> <Source>
Mulliner

> <ID>
HT0994

> <H_MFHB>
0

> <CAS>


> <Cholestasis>


> <Name>
glutethimide

> <Class>
0

$$$$