

  -INDIGO-08031710012D

 18 20  0  0  0  0  0  0  0  0999 V2000
   -5.3295    1.4915    0.0000 C   0  0  0  0  0  0  0  0  0  0  0  0
   -5.4186    2.9889    0.0000 C   0  0  0  0  0  0  0  0  0  0  0  0
   -4.1666    3.8148    0.0000 C   0  0  0  0  0  0  0  0  0  0  0  0
   -2.8252    3.1433    0.0000 N   0  0  0  0  0  0  0  0  0  0  0  0
   -2.7359    1.6459    0.0000 C   0  0  0  0  0  0  0  0  0  0  0  0
   -3.9882    0.8201    0.0000 C   0  0  0  0  0  0  0  0  0  0  0  0
   -1.9310    4.3476    0.0000 C   0  0  0  0  0  0  0  0  0  0  0  0
   -3.2723    5.0191    0.0000 C   0  0  0  0  0  0  0  0  0  0  0  0
   -3.3615    6.5164    0.0000 C   0  0  0  0  0  0  0  0  0  0  0  0
   -2.1093    7.3423    0.0000 C   0  0  0  0  0  0  0  0  0  0  0  0
   -0.7680    6.6709    0.0000 C   0  0  0  0  0  0  0  0  0  0  0  0
   -0.6788    5.1735    0.0000 C   0  0  0  0  0  0  0  0  0  0  0  0
   -0.7266    3.4535    0.0000 C   0  0  0  0  0  0  0  0  0  0  0  0
    0.6499    4.0494    0.0000 C   0  0  0  0  0  0  0  0  0  0  0  0
    1.8543    3.1552    0.0000 C   0  0  0  0  0  0  0  0  0  0  0  0
    1.6821    1.6651    0.0000 C   0  0  0  0  0  0  0  0  0  0  0  0
    0.3055    1.0692    0.0000 C   0  0  0  0  0  0  0  0  0  0  0  0
   -0.8988    1.9634    0.0000 C   0  0  0  0  0  0  0  0  0  0  0  0
  2  1  1  0  0  0  0
  1  6  1  0  0  0  0
  3  2  1  0  0  0  0
  4  3  1  0  0  0  0
  5  4  1  0  0  0  0
  4  7  1  0  0  0  0
  6  5  1  0  0  0  0
  8  7  1  0  0  0  0
  7 12  1  0  0  0  0
  7 13  1  0  0  0  0
  9  8  1  0  0  0  0
 10  9  1  0  0  0  0
 11 10  1  0  0  0  0
 12 11  1  0  0  0  0
 14 13  2  0  0  0  0
 13 18  1  0  0  0  0
 15 14  1  0  0  0  0
 16 15  2  0  0  0  0
 17 16  1  0  0  0  0
 18 17  2  0  0  0  0
M  END
> <Inchi_key>
JTJMJGYZQZDUJJ-UHFFFAOYSA-N

> <Source>
Mulliner

> <ID>
HT3064

> <H_MFHB>
0

> <CAS>


> <Cholestasis>


> <Name>


> <Class>
0


$$$$