
  -INDIGO-08031710012D

 16 17  0  0  0  0  0  0  0  0999 V2000
   10.6318   -2.8488    0.0000 N   0  0  0  0  0  0  0  0  0  0  0  0
    9.3327   -2.0988    0.0000 C   0  0  0  0  0  0  0  0  0  0  0  0
    9.3327   -0.5988    0.0000 C   0  0  0  0  0  0  0  0  0  0  0  0
    8.0337    0.1512    0.0000 C   0  0  0  0  0  0  0  0  0  0  0  0
    6.7347   -0.5988    0.0000 C   0  0  0  0  0  0  0  0  0  0  0  0
    6.7347   -2.0988    0.0000 C   0  0  0  0  0  0  0  0  0  0  0  0
    8.0337   -2.8488    0.0000 C   0  0  0  0  0  0  0  0  0  0  0  0
    5.4355    0.1512    0.0000 S   0  0  0  0  0  0  0  0  0  0  0  0
    4.6857   -1.1478    0.0000 O   0  0  0  0  0  0  0  0  0  0  0  0
    6.1856    1.4503    0.0000 O   0  0  0  0  0  0  0  0  0  0  0  0
    4.1366    0.9012    0.0000 N   0  0  0  0  0  0  0  0  0  0  0  0
    2.8376    0.1512    0.0000 C   0  0  0  0  0  0  0  0  0  0  0  0
    1.4672    0.7613    0.0000 N   0  0  0  0  0  0  0  0  0  0  0  0
    0.4635   -0.3534    0.0000 C   0  0  0  0  0  0  0  0  0  0  0  0
    1.2135   -1.6524    0.0000 C   0  0  0  0  0  0  0  0  0  0  0  0
    2.6807   -1.3406    0.0000 S   0  0  0  0  0  0  0  0  0  0  0  0
  1  2  1  0  0  0  0
  3  2  2  0  0  0  0
  2  7  1  0  0  0  0
  4  3  1  0  0  0  0
  5  4  2  0  0  0  0
  6  5  1  0  0  0  0
  5  8  1  0  0  0  0
  7  6  2  0  0  0  0
  8  9  2  0  0  0  0
  8 10  2  0  0  0  0
  8 11  1  0  0  0  0
 11 12  1  0  0  0  0
 13 12  2  0  0  0  0
 12 16  1  0  0  0  0
 14 13  1  0  0  0  0
 15 14  2  0  0  0  0
 16 15  1  0  0  0  0
M  END
> <Inchi_key>
JNMRHUJNCSQMMB-UHFFFAOYSA-N

> <Source>
Mulliner

> <ID>
HT1953

> <H_MFHB>
0

> <CAS>


> <Cholestasis>


> <Name>
sulfathiazole

> <Class>
0

$$$$