
  -INDIGO-08031710012D

 19 20  0  0  0  0  0  0  0  0999 V2000
    8.7632   -6.1533    0.0000 C   0  0  0  0  0  0  0  0  0  0  0  0
    8.0132   -7.4524    0.0000 N   0  0  0  0  0  0  0  0  0  0  0  0
    8.7632   -8.7514    0.0000 C   0  0  0  0  0  0  0  0  0  0  0  0
    6.5132   -7.4524    0.0000 C   0  0  0  0  0  0  0  0  0  0  0  0
    5.7632   -6.1533    0.0000 C   0  0  0  0  0  0  0  0  0  0  0  0
    4.2631   -6.1533    0.0000 O   0  0  0  0  0  0  0  0  0  0  0  0
    3.5131   -4.8543    0.0000 C   0  0  0  0  0  0  0  0  0  0  0  0
    4.2631   -3.5553    0.0000 C   0  0  0  0  0  0  0  0  0  0  0  0
    3.5131   -2.2562    0.0000 C   0  0  0  0  0  0  0  0  0  0  0  0
    2.0133   -2.2562    0.0000 C   0  0  0  0  0  0  0  0  0  0  0  0
    1.2633   -3.5553    0.0000 C   0  0  0  0  0  0  0  0  0  0  0  0
    2.0133   -4.8543    0.0000 C   0  0  0  0  0  0  0  0  0  0  0  0
    1.2633   -6.1533    0.0000 C   0  0  0  0  0  0  0  0  0  0  0  0
   -0.2368   -6.1533    0.0000 C   0  0  0  0  0  0  0  0  0  0  0  0
   -0.9868   -7.4524    0.0000 C   0  0  0  0  0  0  0  0  0  0  0  0
   -2.4868   -7.4524    0.0000 C   0  0  0  0  0  0  0  0  0  0  0  0
   -3.2368   -6.1533    0.0000 C   0  0  0  0  0  0  0  0  0  0  0  0
   -2.4868   -4.8543    0.0000 C   0  0  0  0  0  0  0  0  0  0  0  0
   -0.9868   -4.8543    0.0000 C   0  0  0  0  0  0  0  0  0  0  0  0
  1  2  1  0  0  0  0
  2  3  1  0  0  0  0
  2  4  1  0  0  0  0
  4  5  1  0  0  0  0
  5  6  1  0  0  0  0
  6  7  1  0  0  0  0
  8  7  2  0  0  0  0
  7 12  1  0  0  0  0
  9  8  1  0  0  0  0
 10  9  2  0  0  0  0
 11 10  1  0  0  0  0
 12 11  2  0  0  0  0
 12 13  1  0  0  0  0
 13 14  1  0  0  0  0
 15 14  2  0  0  0  0
 14 19  1  0  0  0  0
 16 15  1  0  0  0  0
 17 16  2  0  0  0  0
 18 17  1  0  0  0  0
 19 18  2  0  0  0  0
M  END
> <Inchi_key>
IZRPKIZLIFYYKR-UHFFFAOYSA-N

> <Source>
Mulliner , Kotsampasakou

> <ID>
EK0422;HT3120

> <H_MFHB>
0

> <CAS>


> <Cholestasis>
0

> <Name>
phenyltoloxamine

> <Class>
0

$$$$