
  -INDIGO-08031710012D

 18 19  0  0  0  0  0  0  0  0999 V2000
    0.2500   -5.9178    0.0000 N   0  0  0  0  0  0  0  0  0  0  0  0
   -0.5000   -4.6188    0.0000 C   0  0  0  0  0  0  0  0  0  0  0  0
   -2.0000   -4.6188    0.0000 C   0  0  0  0  0  0  0  0  0  0  0  0
   -2.7500   -5.9178    0.0000 Br  0  0  0  0  0  0  0  0  0  0  0  0
   -2.7500   -3.3198    0.0000 C   0  0  0  0  0  0  0  0  0  0  0  0
   -2.0000   -2.0207    0.0000 C   0  0  0  0  0  0  0  0  0  0  0  0
   -2.7500   -0.7217    0.0000 Br  0  0  0  0  0  0  0  0  0  0  0  0
   -0.5000   -2.0207    0.0000 C   0  0  0  0  0  0  0  0  0  0  0  0
    0.2500   -3.3198    0.0000 C   0  0  0  0  0  0  0  0  0  0  0  0
    1.7500   -3.3198    0.0000 C   0  0  0  0  0  0  0  0  0  0  0  0
    2.5000   -2.0207    0.0000 N   0  0  0  0  0  0  0  0  0  0  0  0
    4.0000   -2.0207    0.0000 C   0  0  0  0  0  0  0  0  0  0  0  0
    4.7500   -3.3198    0.0000 C   0  0  0  0  0  0  0  0  0  0  0  0
    6.2500   -3.3198    0.0000 C   0  0  0  0  0  0  0  0  0  0  0  0
    7.0000   -2.0207    0.0000 C   0  0  0  0  0  0  0  0  0  0  0  0
    8.5000   -2.0207    0.0000 O   0  0  0  0  0  0  0  0  0  0  0  0
    6.2500   -0.7217    0.0000 C   0  0  0  0  0  0  0  0  0  0  0  0
    4.7500   -0.7217    0.0000 C   0  0  0  0  0  0  0  0  0  0  0  0
  1  2  1  0  0  0  0
  3  2  2  0  0  0  0
  2  9  1  0  0  0  0
  3  4  1  0  0  0  0
  5  3  1  0  0  0  0
  6  5  2  0  0  0  0
  6  7  1  0  0  0  0
  8  6  1  0  0  0  0
  9  8  2  0  0  0  0
  9 10  1  0  0  0  0
 10 11  1  0  0  0  0
 11 12  1  0  0  0  0
 13 12  1  0  0  0  0
 12 18  1  0  0  0  0
 14 13  1  0  0  0  0
 15 14  1  0  0  0  0
 15 16  1  0  0  0  0
 17 15  1  0  0  0  0
 18 17  1  0  0  0  0
M  END
> <Inchi_key>
JBDGDEWWOUBZPM-UHFFFAOYSA-N

> <Source>
Mulliner

> <ID>
HT0125

> <H_MFHB>
0

> <CAS>


> <Cholestasis>


> <Name>
ambroxol

> <Class>
0

$$$$