
  -INDIGO-08031710012D

 25 26  0  0  0  0  0  0  0  0999 V2000
   19.9734   -0.1351    0.0000 C   0  0  0  0  0  0  0  0  0  0  0  0
   18.4734   -0.1148    0.0000 C   0  0  0  0  0  0  0  0  0  0  0  0
   17.7411    1.1944    0.0000 C   0  0  0  0  0  0  0  0  0  0  0  0
   16.2413    1.2146    0.0000 C   0  0  0  0  0  0  0  0  0  0  0  0
   15.5090    2.5236    0.0000 C   0  0  0  0  0  0  0  0  0  0  0  0
   14.0090    2.5439    0.0000 C   0  0  0  0  0  0  0  0  0  0  0  0
   13.2415    1.2551    0.0000 O   0  0  0  0  0  0  0  0  0  0  0  0
   13.2767    3.8530    0.0000 C   0  0  0  0  0  0  0  0  0  0  0  0
   11.7769    3.8734    0.0000 C   0  0  0  0  0  0  0  0  0  0  0  0
   11.0446    5.1823    0.0000 C   0  0  0  0  0  0  0  0  0  0  0  0
   11.6732    6.5443    0.0000 C   0  0  0  0  0  0  0  0  0  0  0  0
   13.1443    6.8363    0.0000 O   0  0  0  0  0  0  0  0  0  0  0  0
   10.5721    7.5629    0.0000 C   0  0  0  0  0  0  0  0  0  0  0  0
    9.2631    6.8306    0.0000 C   0  0  0  0  0  0  0  0  0  0  0  0
    7.7733    7.0075    0.0000 O   0  0  0  0  0  0  0  0  0  0  0  0
    7.1450    5.6457    0.0000 C   0  0  0  0  0  0  0  0  0  0  0  0
    5.6736    5.3536    0.0000 C   0  0  0  0  0  0  0  0  0  0  0  0
    5.1909    3.9334    0.0000 C   0  0  0  0  0  0  0  0  0  0  0  0
    3.7196    3.6414    0.0000 C   0  0  0  0  0  0  0  0  0  0  0  0
    3.2368    2.2212    0.0000 C   0  0  0  0  0  0  0  0  0  0  0  0
    1.7655    1.9292    0.0000 C   0  0  0  0  0  0  0  0  0  0  0  0
    0.7769    3.0575    0.0000 O   0  0  0  0  0  0  0  0  0  0  0  0
    1.2825    0.5090    0.0000 O   0  0  0  0  0  0  0  0  0  0  0  0
    8.2458    4.6269    0.0000 C   0  0  0  0  0  0  0  0  0  0  0  0
    9.5551    5.3593    0.0000 C   0  0  0  0  0  0  0  0  0  0  0  0
  1  2  1  0  0  0  0
  2  3  1  0  0  0  0
  3  4  1  0  0  0  0
  4  5  1  0  0  0  0
  5  6  1  0  0  0  0
  6  7  1  0  0  0  0
  6  8  1  0  0  0  0
  8  9  2  0  0  0  0
  9 10  1  0  0  0  0
 11 10  1  0  0  0  0
 10 25  1  0  0  0  0
 11 12  1  0  0  0  0
 13 11  1  0  0  0  0
 14 13  1  0  0  0  0
 15 14  1  0  0  0  0
 14 25  1  0  0  0  0
 16 15  1  0  0  0  0
 16 17  2  0  0  0  0
 24 16  1  0  0  0  0
 17 18  1  0  0  0  0
 18 19  1  0  0  0  0
 19 20  1  0  0  0  0
 20 21  1  0  0  0  0
 21 22  2  0  0  0  0
 21 23  1  0  0  0  0
 25 24  1  0  0  0  0
M  END
> <Inchi_key>
KAQKFAOMNZTLHT-OQYPFEDXSA-N, KAQKFAOMNZTLHT-FHZLGBCPSA-N

> <Source>
Mulliner,  Kotsampasakou

> <ID>
EK0186;HT0772

> <H_MFHB>
0

> <CAS>


> <Cholestasis>
0

> <Name>
epoprostenol sodium;epoprostenol

> <Class>
0

$$$$