
  -INDIGO-08031710012D

 30 33  0  0  0  0  0  0  0  0999 V2000
    4.1109   -2.9721    0.0000 C   0  0  0  0  0  0  0  0  0  0  0  0
    3.6407   -1.5477    0.0000 C   0  0  0  0  0  0  0  0  0  0  0  0
    4.5168   -0.3300    0.0000 C   0  0  0  0  0  0  0  0  0  0  0  0
    3.6294    0.8794    0.0000 N   0  0  0  0  0  0  0  0  0  0  0  0
    2.2048    0.4092    0.0000 N   0  0  0  0  0  0  0  0  0  0  0  0
    0.9874    1.2851    0.0000 C   0  0  0  0  0  0  0  0  0  0  0  0
   -0.3803    0.6687    0.0000 C   0  0  0  0  0  0  0  0  0  0  0  0
   -1.5979    1.5445    0.0000 C   0  0  0  0  0  0  0  0  0  0  0  0
   -1.4481    3.0371    0.0000 C   0  0  0  0  0  0  0  0  0  0  0  0
   -2.6657    3.9130    0.0000 Cl  0  0  0  0  0  0  0  0  0  0  0  0
   -0.0806    3.6535    0.0000 C   0  0  0  0  0  0  0  0  0  0  0  0
    1.1372    2.7777    0.0000 C   0  0  0  0  0  0  0  0  0  0  0  0
    2.5044    3.3942    0.0000 Cl  0  0  0  0  0  0  0  0  0  0  0  0
    2.2120   -1.0908    0.0000 C   0  0  0  0  0  0  0  0  0  0  0  0
    1.0027   -1.9782    0.0000 C   0  0  0  0  0  0  0  0  0  0  0  0
   -0.3707   -1.3746    0.0000 C   0  0  0  0  0  0  0  0  0  0  0  0
   -1.5798   -2.2619    0.0000 C   0  0  0  0  0  0  0  0  0  0  0  0
   -1.4162   -3.7529    0.0000 C   0  0  0  0  0  0  0  0  0  0  0  0
   -2.6255   -4.6403    0.0000 Cl  0  0  0  0  0  0  0  0  0  0  0  0
   -0.0430   -4.3566    0.0000 C   0  0  0  0  0  0  0  0  0  0  0  0
    1.1663   -3.4692    0.0000 C   0  0  0  0  0  0  0  0  0  0  0  0
    6.0166   -0.3230    0.0000 C   0  0  0  0  0  0  0  0  0  0  0  0
    6.7727   -1.6185    0.0000 O   0  0  0  0  0  0  0  0  0  0  0  0
    6.7606    0.9795    0.0000 N   0  0  0  0  0  0  0  0  0  0  0  0
    8.2604    0.9866    0.0000 N   0  0  0  0  0  0  0  0  0  0  0  0
    9.0044    2.2893    0.0000 C   0  0  0  0  0  0  0  0  0  0  0  0
   10.5044    2.2962    0.0000 C   0  0  0  0  0  0  0  0  0  0  0  0
   11.2605    1.0007    0.0000 C   0  0  0  0  0  0  0  0  0  0  0  0
   10.5165   -0.3019    0.0000 C   0  0  0  0  0  0  0  0  0  0  0  0
    9.0165   -0.3089    0.0000 C   0  0  0  0  0  0  0  0  0  0  0  0
  1  2  1  0  0  0  0
  3  2  1  0  0  0  0
  2 14  2  0  0  0  0
  4  3  2  0  0  0  0
  3 22  1  0  0  0  0
  5  4  1  0  0  0  0
  5  6  1  0  0  0  0
 14  5  1  0  0  0  0
  7  6  2  0  0  0  0
  6 12  1  0  0  0  0
  8  7  1  0  0  0  0
  9  8  2  0  0  0  0
  9 10  1  0  0  0  0
 11  9  1  0  0  0  0
 12 11  2  0  0  0  0
 12 13  1  0  0  0  0
 14 15  1  0  0  0  0
 16 15  2  0  0  0  0
 15 21  1  0  0  0  0
 17 16  1  0  0  0  0
 18 17  2  0  0  0  0
 18 19  1  0  0  0  0
 20 18  1  0  0  0  0
 21 20  2  0  0  0  0
 22 23  2  0  0  0  0
 22 24  1  0  0  0  0
 24 25  1  0  0  0  0
 26 25  1  0  0  0  0
 25 30  1  0  0  0  0
 27 26  1  0  0  0  0
 28 27  1  0  0  0  0
 29 28  1  0  0  0  0
 30 29  1  0  0  0  0
M  END
> <Inchi_key>
JZCPYUJPEARBJL-UHFFFAOYSA-N

> <Source>
Mulliner

> <ID>
HT1828

> <H_MFHB>
0

> <CAS>


> <Cholestasis>


> <Name>
rimonabant

> <Class>
0

$$$$