
  -INDIGO-08031710012D

 28 30  0  0  0  0  0  0  0  0999 V2000
    6.4890  -11.2392    0.0000 C   0  0  0  0  0  0  0  0  0  0  0  0
    7.2388   -9.9401    0.0000 C   0  0  0  0  0  0  0  0  0  0  0  0
    6.4890   -8.6411    0.0000 N   0  0  0  0  0  0  0  0  0  0  0  0
    7.2388   -7.3419    0.0000 C   0  0  0  0  0  0  0  0  0  0  0  0
    8.7389   -7.3419    0.0000 C   0  0  0  0  0  0  0  0  0  0  0  0
    4.9889   -8.6411    0.0000 C   0  0  0  0  0  0  0  0  0  0  0  0
    4.2389   -7.3419    0.0000 C   0  0  0  0  0  0  0  0  0  0  0  0
    2.7388   -7.3419    0.0000 O   0  0  0  0  0  0  0  0  0  0  0  0
    1.9890   -6.0429    0.0000 C   0  0  0  0  0  0  0  0  0  0  0  0
    2.7388   -4.7440    0.0000 O   0  0  0  0  0  0  0  0  0  0  0  0
    0.4889   -6.0429    0.0000 C   0  0  0  0  0  0  0  0  0  0  0  0
   -0.2611   -4.7440    0.0000 C   0  0  0  0  0  0  0  0  0  0  0  0
    0.4889   -3.4448    0.0000 C   0  0  0  0  0  0  0  0  0  0  0  0
    1.9808   -3.2881    0.0000 C   0  0  0  0  0  0  0  0  0  0  0  0
    2.2926   -1.8209    0.0000 C   0  0  0  0  0  0  0  0  0  0  0  0
    0.9934   -1.0709    0.0000 C   0  0  0  0  0  0  0  0  0  0  0  0
   -0.1212   -2.0746    0.0000 O   0  0  0  0  0  0  0  0  0  0  0  0
   -0.2611   -7.3419    0.0000 C   0  0  0  0  0  0  0  0  0  0  0  0
   -1.7612   -7.3419    0.0000 C   0  0  0  0  0  0  0  0  0  0  0  0
   -2.5112   -6.0429    0.0000 C   0  0  0  0  0  0  0  0  0  0  0  0
   -4.0111   -6.0429    0.0000 C   0  0  0  0  0  0  0  0  0  0  0  0
   -4.7611   -7.3419    0.0000 C   0  0  0  0  0  0  0  0  0  0  0  0
   -4.0111   -8.6411    0.0000 C   0  0  0  0  0  0  0  0  0  0  0  0
   -4.7611   -9.9401    0.0000 C   0  0  0  0  0  0  0  0  0  0  0  0
   -4.0111  -11.2392    0.0000 C   0  0  0  0  0  0  0  0  0  0  0  0
   -2.5112  -11.2392    0.0000 C   0  0  0  0  0  0  0  0  0  0  0  0
   -1.7612   -9.9401    0.0000 C   0  0  0  0  0  0  0  0  0  0  0  0
   -2.5112   -8.6411    0.0000 C   0  0  0  0  0  0  0  0  0  0  0  0
  1  2  1  0  0  0  0
  2  3  1  0  0  0  0
  3  4  1  0  0  0  0
  3  6  1  0  0  0  0
  4  5  1  0  0  0  0
  6  7  1  0  0  0  0
  7  8  1  0  0  0  0
  8  9  1  0  0  0  0
  9 10  2  0  0  0  0
  9 11  1  0  0  0  0
 11 12  1  0  0  0  0
 11 18  1  0  0  0  0
 12 13  1  0  0  0  0
 14 13  1  0  0  0  0
 13 17  1  0  0  0  0
 15 14  1  0  0  0  0
 16 15  1  0  0  0  0
 17 16  1  0  0  0  0
 18 19  1  0  0  0  0
 20 19  2  0  0  0  0
 19 28  1  0  0  0  0
 21 20  1  0  0  0  0
 22 21  2  0  0  0  0
 23 22  1  0  0  0  0
 24 23  1  0  0  0  0
 23 28  2  0  0  0  0
 25 24  2  0  0  0  0
 26 25  1  0  0  0  0
 27 26  2  0  0  0  0
 28 27  1  0  0  0  0
M  END
> <Inchi_key>
KBAFPSLPKGSANY-UHFFFAOYSA-N

> <Source>
Mulliner

> <ID>
HT1453

> <H_MFHB>
0

> <CAS>
474972

> <Cholestasis>


> <Name>
naftidrofuryl

> <Class>
0

$$$$