

  -INDIGO-08031710012D

 31 32  0  0  0  0  0  0  0  0999 V2000
   -2.4480    5.4292    0.0000 C   0  0  0  0  0  0  0  0  0  0  0  0
   -1.6982    4.1301    0.0000 C   0  0  0  0  0  0  0  0  0  0  0  0
   -0.9483    2.8311    0.0000 C   0  0  0  0  0  0  0  0  0  0  0  0
   -2.9974    3.3801    0.0000 O   0  0  0  0  0  0  0  0  0  0  0  0
   -4.2962    4.1301    0.0000 C   0  0  0  0  0  0  0  0  0  0  0  0
   -4.2962    5.6301    0.0000 C   0  0  0  0  0  0  0  0  0  0  0  0
   -5.5954    6.3801    0.0000 C   0  0  0  0  0  0  0  0  0  0  0  0
   -6.8942    5.6301    0.0000 C   0  0  0  0  0  0  0  0  0  0  0  0
   -8.1934    6.3801    0.0000 Cl  0  0  0  0  0  0  0  0  0  0  0  0
   -6.8942    4.1301    0.0000 C   0  0  0  0  0  0  0  0  0  0  0  0
   -5.5954    3.3801    0.0000 C   0  0  0  0  0  0  0  0  0  0  0  0
   -0.3990    4.8801    0.0000 C   0  0  0  0  0  0  0  0  0  0  0  0
   -0.3990    6.3801    0.0000 O   0  0  0  0  0  0  0  0  0  0  0  0
    0.8998    4.1301    0.0000 O   0  0  0  0  0  0  0  0  0  0  0  0
    2.1990    4.8801    0.0000 C   0  0  0  0  0  0  0  0  0  0  0  0
    3.4978    4.1301    0.0000 C   0  0  0  0  0  0  0  0  0  0  0  0
    4.7970    4.8801    0.0000 C   0  0  0  0  0  0  0  0  0  0  0  0
    6.0962    4.1301    0.0000 O   0  0  0  0  0  0  0  0  0  0  0  0
    7.3951    4.8801    0.0000 C   0  0  0  0  0  0  0  0  0  0  0  0
    7.3951    6.3801    0.0000 O   0  0  0  0  0  0  0  0  0  0  0  0
    8.6942    4.1301    0.0000 C   0  0  0  0  0  0  0  0  0  0  0  0
    7.9440    2.8311    0.0000 C   0  0  0  0  0  0  0  0  0  0  0  0
    9.9931    3.3801    0.0000 C   0  0  0  0  0  0  0  0  0  0  0  0
    9.4441    5.4292    0.0000 O   0  0  0  0  0  0  0  0  0  0  0  0
   10.9442    5.4292    0.0000 C   0  0  0  0  0  0  0  0  0  0  0  0
   11.6941    4.1301    0.0000 C   0  0  0  0  0  0  0  0  0  0  0  0
   13.1941    4.1301    0.0000 C   0  0  0  0  0  0  0  0  0  0  0  0
   13.9440    5.4292    0.0000 C   0  0  0  0  0  0  0  0  0  0  0  0
   15.4441    5.4292    0.0000 Cl  0  0  0  0  0  0  0  0  0  0  0  0
   13.1941    6.7282    0.0000 C   0  0  0  0  0  0  0  0  0  0  0  0
   11.6941    6.7282    0.0000 C   0  0  0  0  0  0  0  0  0  0  0  0
  1  2  1  0  0  0  0
  2  3  1  0  0  0  0
  2  4  1  0  0  0  0
  2 12  1  0  0  0  0
  4  5  1  0  0  0  0
  6  5  2  0  0  0  0
  5 11  1  0  0  0  0
  7  6  1  0  0  0  0
  8  7  2  0  0  0  0
  8  9  1  0  0  0  0
 10  8  1  0  0  0  0
 11 10  2  0  0  0  0
 12 13  2  0  0  0  0
 12 14  1  0  0  0  0
 14 15  1  0  0  0  0
 15 16  1  0  0  0  0
 16 17  1  0  0  0  0
 17 18  1  0  0  0  0
 18 19  1  0  0  0  0
 19 20  2  0  0  0  0
 19 21  1  0  0  0  0
 21 22  1  0  0  0  0
 21 23  1  0  0  0  0
 21 24  1  0  0  0  0
 24 25  1  0  0  0  0
 26 25  2  0  0  0  0
 25 31  1  0  0  0  0
 27 26  1  0  0  0  0
 28 27  2  0  0  0  0
 28 29  1  0  0  0  0
 30 28  1  0  0  0  0
 31 30  2  0  0  0  0
M  END
> <Inchi_key>
JLRNKCZRCMIVKA-UHFFFAOYSA-N

> <Source>
Mulliner

> <ID>
HT1888

> <H_MFHB>
0

> <CAS>
14929-11-4

> <Cholestasis>


> <Name>
simfibrate

> <Class>
0


$$$$