

  -INDIGO-08031710012D

 10 10  0  0  0  0  0  0  0  0999 V2000
    1.1559    1.1559    0.0000 C   0  0  0  0  0  0  0  0  0  0  0  0
    1.1559   -0.3441    0.0000 N   0  0  0  0  0  0  0  0  0  0  0  0
   -0.1432   -1.0941    0.0000 C   0  0  0  0  0  0  0  0  0  0  0  0
   -0.1432   -2.5941    0.0000 C   0  0  0  0  0  0  0  0  0  0  0  0
    1.1559   -3.3441    0.0000 C   0  0  0  0  0  0  0  0  0  0  0  0
    2.4549   -2.5941    0.0000 C   0  0  0  0  0  0  0  0  0  0  0  0
    2.4549   -1.0941    0.0000 C   0  0  0  0  0  0  0  0  0  0  0  0
    3.7539   -0.3441    0.0000 C   0  0  0  0  0  0  0  0  0  0  0  0
    5.0530   -1.0941    0.0000 N   0  0  0  0  0  0  0  0  0  0  0  0
    6.3520   -0.3441    0.0000 O   0  0  0  0  0  0  0  0  0  0  0  0
  1  2  1  0  0  0  0
  3  2  2  0  0  0  0
  2  7  1  0  0  0  0
  4  3  1  0  0  0  0
  5  4  2  0  0  0  0
  6  5  1  0  0  0  0
  7  6  2  0  0  0  0
  7  8  1  0  0  0  0
  8  9  2  0  0  0  0
  9 10  1  0  0  0  0
M  CHG  1   2   1
M  END
> <Inchi_key>
JBKPUQTUERUYQE-UHFFFAOYSA-O

> <Source>
Mulliner

> <ID>
HT1719

> <H_MFHB>
0

> <CAS>
51-15-0

> <Cholestasis>


> <Name>
pralidoxime chloride;pralidoxime

> <Class>
0


$$$$