

  -INDIGO-08031710012D

  6  5  0  0  0  0  0  0  0  0999 V2000
    3.3750    0.6495    0.0000 C   0  0  0  0  0  0  0  0  0  0  0  0
    2.6250   -0.6495    0.0000 C   0  0  0  0  0  0  0  0  0  0  0  0
    3.3750   -1.9486    0.0000 O   0  0  0  0  0  0  0  0  0  0  0  0
    1.1250   -0.6495    0.0000 C   0  0  0  0  0  0  0  0  0  0  0  0
    0.3750    0.6495    0.0000 O   0  0  0  0  0  0  0  0  0  0  0  0
    0.3750   -1.9486    0.0000 O   0  0  0  0  0  0  0  0  0  0  0  0
  1  2  1  0  0  0  0
  2  3  1  0  0  0  0
  2  4  1  0  0  0  0
  4  5  2  0  0  0  0
  4  6  1  0  0  0  0
M  END
> <Inchi_key>
JVTAAEKCZFNVCJ-UHFFFAOYSA-N

> <Source>
Mulliner , Kotsampasakou

> <ID>
EK0293;HT0144

> <H_MFHB>
0

> <CAS>


> <Cholestasis>
0

> <Name>
ammonium lactate;lactic acid

> <Class>
0


$$$$