
  -INDIGO-08031710012D

 16 19  0  0  0  0  0  0  0  0999 V2000
   -3.3204   -2.1814    0.0000 C   0  0  0  0  0  0  0  0  0  0  0  0
   -2.5477   -3.1525    0.0000 N   0  0  0  0  0  0  0  0  0  0  0  0
   -4.0465   -2.8641    0.0000 C   0  0  0  0  0  0  0  0  0  0  0  0
   -3.9839   -1.1566    0.0000 C   0  0  0  0  0  0  0  0  0  0  0  0
   -4.7755   -0.1065    0.0000 C   0  0  0  0  0  0  0  0  0  0  0  0
   -3.2832   -0.3883    0.0000 C   0  0  0  0  0  0  0  0  0  0  0  0
   -1.9468    0.5373    0.0000 C   0  0  0  0  0  0  0  0  0  0  0  0
   -0.4670    0.5814    0.0000 C   0  0  0  0  0  0  0  0  0  0  0  0
    0.2923   -0.7123    0.0000 C   0  0  0  0  0  0  0  0  0  0  0  0
    1.7922   -0.7016    0.0000 N   0  0  0  0  0  0  0  0  0  0  0  0
    2.5515   -1.9952    0.0000 C   0  0  0  0  0  0  0  0  0  0  0  0
    1.8104   -3.2970    0.0000 C   0  0  0  0  0  0  0  0  0  0  0  0
    0.3104   -3.3077    0.0000 N   0  0  0  0  0  0  0  0  0  0  0  0
   -0.4488   -2.0140    0.0000 C   0  0  0  0  0  0  0  0  0  0  0  0
   -1.9488   -2.0247    0.0000 C   0  0  0  0  0  0  0  0  0  0  0  0
   -2.6626   -0.5873    0.0000 C   0  0  0  0  0  0  0  0  0  0  0  0
  2  1  1  0  0  0  0
  1  6  1  0  0  0  0
  3  2  1  0  0  0  0
  4  3  1  0  0  0  0
  4  5  1  0  0  0  0
 16  4  1  0  0  0  0
  5  6  1  0  0  0  0
  6  7  1  0  0  0  0
  8  7  1  0  0  0  0
  7 16  2  0  0  0  0
  9  8  2  0  0  0  0
 10  9  1  0  0  0  0
  9 14  1  0  0  0  0
 11 10  2  0  0  0  0
 12 11  1  0  0  0  0
 13 12  2  0  0  0  0
 14 13  1  0  0  0  0
 15 14  2  0  0  0  0
 16 15  1  0  0  0  0
M  END
> <Inchi_key>
JQSHBVHOMNKWFT-UHFFFAOYSA-N

> <Source>
Mulliner

> <ID>
HT2169

> <H_MFHB>
0

> <CAS>


> <Cholestasis>


> <Name>
varenicline

> <Class>
0

$$$$