
  -INDIGO-08031710012D

 21 23  0  0  0  0  0  0  0  0999 V2000
   -2.0038    7.6655    0.0000 C   0  0  0  0  0  0  0  0  0  0  0  0
   -1.2538    6.3665    0.0000 O   0  0  0  0  0  0  0  0  0  0  0  0
    0.2463    6.3665    0.0000 C   0  0  0  0  0  0  0  0  0  0  0  0
    0.9961    7.6655    0.0000 C   0  0  0  0  0  0  0  0  0  0  0  0
    2.4962    7.6655    0.0000 C   0  0  0  0  0  0  0  0  0  0  0  0
    3.2462    6.3665    0.0000 C   0  0  0  0  0  0  0  0  0  0  0  0
    4.7136    6.0546    0.0000 N   0  0  0  0  0  0  0  0  0  0  0  0
    4.8703    4.5628    0.0000 C   0  0  0  0  0  0  0  0  0  0  0  0
    6.1694    3.8128    0.0000 N   0  0  0  0  0  0  0  0  0  0  0  0
    7.4682    4.5628    0.0000 C   0  0  0  0  0  0  0  0  0  0  0  0
    7.4682    6.0628    0.0000 O   0  0  0  0  0  0  0  0  0  0  0  0
    8.7675    3.8128    0.0000 N   0  0  0  0  0  0  0  0  0  0  0  0
   10.0664    4.5628    0.0000 C   0  0  0  0  0  0  0  0  0  0  0  0
   11.3654    3.8128    0.0000 C   0  0  0  0  0  0  0  0  0  0  0  0
   12.6645    4.5628    0.0000 C   0  0  0  0  0  0  0  0  0  0  0  0
   12.6645    6.0628    0.0000 C   0  0  0  0  0  0  0  0  0  0  0  0
   11.3654    6.8128    0.0000 C   0  0  0  0  0  0  0  0  0  0  0  0
   10.0664    6.0628    0.0000 C   0  0  0  0  0  0  0  0  0  0  0  0
    3.4998    3.9527    0.0000 S   0  0  0  0  0  0  0  0  0  0  0  0
    2.4962    5.0674    0.0000 C   0  0  0  0  0  0  0  0  0  0  0  0
    0.9961    5.0674    0.0000 C   0  0  0  0  0  0  0  0  0  0  0  0
  1  2  1  0  0  0  0
  2  3  1  0  0  0  0
  4  3  2  0  0  0  0
  3 21  1  0  0  0  0
  5  4  1  0  0  0  0
  6  5  2  0  0  0  0
  7  6  1  0  0  0  0
  6 20  1  0  0  0  0
  8  7  2  0  0  0  0
  8  9  1  0  0  0  0
 19  8  1  0  0  0  0
  9 10  1  0  0  0  0
 10 11  2  0  0  0  0
 10 12  1  0  0  0  0
 12 13  1  0  0  0  0
 14 13  2  0  0  0  0
 13 18  1  0  0  0  0
 15 14  1  0  0  0  0
 16 15  2  0  0  0  0
 17 16  1  0  0  0  0
 18 17  2  0  0  0  0
 20 19  1  0  0  0  0
 21 20  2  0  0  0  0
M  END
> <Inchi_key>
JHBWYQRKOUBPCA-UHFFFAOYSA-N

> <Source>
Mulliner

> <ID>
HT3350

> <H_MFHB>
0

> <CAS>


> <Cholestasis>


> <Name>


> <Class>
0

$$$$