

  -INDIGO-08031710012D

 29 31  0  0  0  0  0  0  0  0999 V2000
    6.7479    4.9005    0.0000 C   0  0  0  0  0  0  0  0  0  0  0  0
    6.2838    3.4741    0.0000 C   0  0  0  0  0  0  0  0  0  0  0  0
    7.2870    2.3590    0.0000 C   0  0  0  0  0  0  0  0  0  0  0  0
    8.7543    2.6703    0.0000 C   0  0  0  0  0  0  0  0  0  0  0  0
    9.7575    1.5552    0.0000 C   0  0  0  0  0  0  0  0  0  0  0  0
   11.2250    1.8665    0.0000 C   0  0  0  0  0  0  0  0  0  0  0  0
   10.9136    3.3338    0.0000 C   0  0  0  0  0  0  0  0  0  0  0  0
   12.6923    2.1777    0.0000 C   0  0  0  0  0  0  0  0  0  0  0  0
   11.5362    0.3991    0.0000 O   0  0  0  0  0  0  0  0  0  0  0  0
    4.8163    3.1628    0.0000 C   0  0  0  0  0  0  0  0  0  0  0  0
    4.2058    1.7928    0.0000 C   0  0  0  0  0  0  0  0  0  0  0  0
    2.7140    1.9502    0.0000 C   0  0  0  0  0  0  0  0  0  0  0  0
    2.4026    3.4175    0.0000 C   0  0  0  0  0  0  0  0  0  0  0  0
    1.1039    4.1680    0.0000 C   0  0  0  0  0  0  0  0  0  0  0  0
   -0.1954    3.4185    0.0000 C   0  0  0  0  0  0  0  0  0  0  0  0
   -1.4940    4.1691    0.0000 C   0  0  0  0  0  0  0  0  0  0  0  0
   -2.7933    3.4196    0.0000 C   0  0  0  0  0  0  0  0  0  0  0  0
   -4.0923    4.1701    0.0000 C   0  0  0  0  0  0  0  0  0  0  0  0
   -5.3915    3.4206    0.0000 C   0  0  0  0  0  0  0  0  0  0  0  0
   -6.6902    4.1711    0.0000 O   0  0  0  0  0  0  0  0  0  0  0  0
   -5.3921    1.9206    0.0000 C   0  0  0  0  0  0  0  0  0  0  0  0
   -4.0934    1.1701    0.0000 C   0  0  0  0  0  0  0  0  0  0  0  0
   -2.7939    1.9196    0.0000 C   0  0  0  0  0  0  0  0  0  0  0  0
   -1.4952    1.1691    0.0000 C   0  0  0  0  0  0  0  0  0  0  0  0
    1.1045    5.6680    0.0000 C   0  0  0  0  0  0  0  0  0  0  0  0
    2.4038    6.4175    0.0000 C   0  0  0  0  0  0  0  0  0  0  0  0
    3.7027    5.6670    0.0000 C   0  0  0  0  0  0  0  0  0  0  0  0
    3.7021    4.1670    0.0000 C   0  0  0  0  0  0  0  0  0  0  0  0
    5.0617    4.8004    0.0000 C   0  0  0  0  0  0  0  0  0  0  0  0
  1  2  1  0  0  0  0
  2  3  1  0  0  0  0
  2 10  1  0  0  0  0
  3  4  1  0  0  0  0
  4  5  1  0  0  0  0
  5  6  1  0  0  0  0
  6  7  1  0  0  0  0
  6  8  1  0  0  0  0
  6  9  1  0  0  0  0
 11 10  1  0  0  0  0
 10 28  1  0  0  0  0
 12 11  1  0  0  0  0
 13 12  1  0  0  0  0
 14 13  1  0  0  0  0
 13 28  1  0  0  0  0
 14 15  2  0  0  0  0
 25 14  1  0  0  0  0
 15 16  1  0  0  0  0
 16 17  2  0  0  0  0
 18 17  1  0  0  0  0
 17 23  1  0  0  0  0
 19 18  1  0  0  0  0
 19 20  1  0  0  0  0
 21 19  1  0  0  0  0
 22 21  1  0  0  0  0
 23 22  1  0  0  0  0
 23 24  2  0  0  0  0
 26 25  1  0  0  0  0
 27 26  1  0  0  0  0
 28 27  1  0  0  0  0
 28 29  1  0  0  0  0
M  END
> <Inchi_key>
JWUBBDSIWDLEOM-DWKIUPLPSA-N

> <Source>
Mulliner

> <ID>
HT0349

> <H_MFHB>
0

> <CAS>
19356-17-3

> <Cholestasis>


> <Name>
calcifediol;calcidiol

> <Class>
0


$$$$