
  -INDIGO-08031710012D

 35 39  0  0  0  0  0  0  0  0999 V2000
   -1.5565   -3.6504    0.0000 C   0  0  0  0  0  0  0  0  0  0  0  0
   -0.5179   -4.7328    0.0000 C   0  0  0  0  0  0  0  0  0  0  0  0
   -1.9539   -5.1667    0.0000 C   0  0  0  0  0  0  0  0  0  0  0  0
    0.6425   -3.7824    0.0000 S   0  0  0  0  0  0  0  0  0  0  0  0
    1.9050   -4.5924    0.0000 C   0  0  0  0  0  0  0  0  0  0  0  0
    3.3561   -4.9727    0.0000 C   0  0  0  0  0  0  0  0  0  0  0  0
    4.6508   -4.2156    0.0000 N   0  0  0  0  0  0  0  0  0  0  0  0
    5.9542   -4.9584    0.0000 C   0  0  0  0  0  0  0  0  0  0  0  0
    5.9623   -6.4585    0.0000 O   0  0  0  0  0  0  0  0  0  0  0  0
    7.2489   -4.2013    0.0000 C   0  0  0  0  0  0  0  0  0  0  0  0
    8.5520   -4.9440    0.0000 C   0  0  0  0  0  0  0  0  0  0  0  0
    8.5604   -6.4441    0.0000 O   0  0  0  0  0  0  0  0  0  0  0  0
    9.8470   -4.1870    0.0000 O   0  0  0  0  0  0  0  0  0  0  0  0
   11.1501   -4.9299    0.0000 C   0  0  0  0  0  0  0  0  0  0  0  0
   11.1585   -6.4298    0.0000 C   0  0  0  0  0  0  0  0  0  0  0  0
   12.4616   -7.1726    0.0000 C   0  0  0  0  0  0  0  0  0  0  0  0
   13.7563   -6.4155    0.0000 C   0  0  0  0  0  0  0  0  0  0  0  0
   15.1856   -6.8711    0.0000 C   0  0  0  0  0  0  0  0  0  0  0  0
   16.0605   -5.6528    0.0000 C   0  0  0  0  0  0  0  0  0  0  0  0
   15.1722   -4.4441    0.0000 C   0  0  0  0  0  0  0  0  0  0  0  0
   13.7482   -4.9155    0.0000 C   0  0  0  0  0  0  0  0  0  0  0  0
   12.4451   -4.1727    0.0000 C   0  0  0  0  0  0  0  0  0  0  0  0
    7.2408   -2.7013    0.0000 C   0  0  0  0  0  0  0  0  0  0  0  0
    5.9377   -1.9585    0.0000 C   0  0  0  0  0  0  0  0  0  0  0  0
    5.9293   -0.4585    0.0000 C   0  0  0  0  0  0  0  0  0  0  0  0
    7.2243    0.2987    0.0000 C   0  0  0  0  0  0  0  0  0  0  0  0
    8.5274   -0.4442    0.0000 C   0  0  0  0  0  0  0  0  0  0  0  0
    8.5355   -1.9441    0.0000 C   0  0  0  0  0  0  0  0  0  0  0  0
    2.9758   -6.4238    0.0000 C   0  0  0  0  0  0  0  0  0  0  0  0
    3.7329   -7.7185    0.0000 O   0  0  0  0  0  0  0  0  0  0  0  0
    1.5249   -6.0434    0.0000 N   0  0  0  0  0  0  0  0  0  0  0  0
    0.0273   -6.1302    0.0000 C   0  0  0  0  0  0  0  0  0  0  0  0
   -0.7827   -7.3927    0.0000 C   0  0  0  0  0  0  0  0  0  0  0  0
   -0.0944   -8.7254    0.0000 O   0  0  0  0  0  0  0  0  0  0  0  0
   -2.2811   -7.3224    0.0000 O   0  0  0  0  0  0  0  0  0  0  0  0
  1  2  1  0  0  0  0
  2  3  1  0  0  0  0
  4  2  1  0  0  0  0
  2 32  1  0  0  0  0
  5  4  1  0  0  0  0
  6  5  1  0  0  0  0
  5 31  1  0  0  0  0
  6  7  1  0  0  0  0
 29  6  1  0  0  0  0
  7  8  1  0  0  0  0
  8  9  2  0  0  0  0
  8 10  1  0  0  0  0
 10 11  1  0  0  0  0
 10 23  1  0  0  0  0
 11 12  2  0  0  0  0
 11 13  1  0  0  0  0
 13 14  1  0  0  0  0
 15 14  2  0  0  0  0
 14 22  1  0  0  0  0
 16 15  1  0  0  0  0
 17 16  2  0  0  0  0
 18 17  1  0  0  0  0
 17 21  1  0  0  0  0
 19 18  1  0  0  0  0
 20 19  1  0  0  0  0
 21 20  1  0  0  0  0
 22 21  2  0  0  0  0
 24 23  2  0  0  0  0
 23 28  1  0  0  0  0
 25 24  1  0  0  0  0
 26 25  2  0  0  0  0
 27 26  1  0  0  0  0
 28 27  2  0  0  0  0
 29 30  2  0  0  0  0
 31 29  1  0  0  0  0
 32 31  1  0  0  0  0
 32 33  1  0  0  0  0
 33 34  2  0  0  0  0
 33 35  1  0  0  0  0
M  END
> <Inchi_key>
JIRBAUWICKGBFE-UHFFFAOYSA-N

> <Source>
Mulliner

> <ID>
HT0374

> <H_MFHB>
0

> <CAS>


> <Cholestasis>


> <Name>
carbenicillin indanyl sodium;carbenicillin indanyl

> <Class>
0

$$$$