

  -INDIGO-08031710012D

 47 48  0  0  0  0  0  0  0  0999 V2000
   24.1982    9.5229    0.0000 N   0  0  0  0  0  0  0  0  0  0  0  0
   22.7017    9.6256    0.0000 C   0  0  0  0  0  0  0  0  0  0  0  0
   21.8645    8.3811    0.0000 C   0  0  0  0  0  0  0  0  0  0  0  0
   20.3680    8.4836    0.0000 C   0  0  0  0  0  0  0  0  0  0  0  0
   19.5308    7.2388    0.0000 C   0  0  0  0  0  0  0  0  0  0  0  0
   20.1904    5.8916    0.0000 N   0  0  0  0  0  0  0  0  0  0  0  0
   18.0346    7.3415    0.0000 C   0  0  0  0  0  0  0  0  0  0  0  0
   17.1974    6.0970    0.0000 C   0  0  0  0  0  0  0  0  0  0  0  0
   17.8567    4.7495    0.0000 O   0  0  0  0  0  0  0  0  0  0  0  0
   15.7009    6.1995    0.0000 N   0  0  0  0  0  0  0  0  0  0  0  0
   14.8637    4.9550    0.0000 C   0  0  0  0  0  0  0  0  0  0  0  0
   13.3672    5.0575    0.0000 C   0  0  0  0  0  0  0  0  0  0  0  0
   12.7183    3.7258    0.0000 N   0  0  0  0  0  0  0  0  0  0  0  0
   13.5129    2.4753    0.0000 C   0  0  0  0  0  0  0  0  0  0  0  0
   14.9885    2.7441    0.0000 O   0  0  0  0  0  0  0  0  0  0  0  0
   13.2385    1.1592    0.0000 C   0  0  0  0  0  0  0  0  0  0  0  0
   14.5828    0.4941    0.0000 C   0  0  0  0  0  0  0  0  0  0  0  0
   14.6792   -1.0028    0.0000 O   0  0  0  0  0  0  0  0  0  0  0  0
   12.3423    0.1237    0.0000 N   0  0  0  0  0  0  0  0  0  0  0  0
   10.8960    0.0067    0.0000 C   0  0  0  0  0  0  0  0  0  0  0  0
   10.3129   -1.3753    0.0000 O   0  0  0  0  0  0  0  0  0  0  0  0
    9.9509    1.1481    0.0000 C   0  0  0  0  0  0  0  0  0  0  0  0
   10.4756    2.5532    0.0000 N   0  0  0  0  0  0  0  0  0  0  0  0
    8.4560    0.8997    0.0000 C   0  0  0  0  0  0  0  0  0  0  0  0
    7.5552    2.1354    0.0000 N   0  0  0  0  0  0  0  0  0  0  0  0
    8.2207    3.4774    0.0000 C   0  0  0  0  0  0  0  0  0  0  0  0
    9.7182    3.5618    0.0000 O   0  0  0  0  0  0  0  0  0  0  0  0
    7.4086    4.7365    0.0000 C   0  0  0  0  0  0  0  0  0  0  0  0
    8.1686    6.0650    0.0000 N   0  0  0  0  0  0  0  0  0  0  0  0
    9.6817    5.9838    0.0000 C   0  0  0  0  0  0  0  0  0  0  0  0
   10.3586    4.6451    0.0000 O   0  0  0  0  0  0  0  0  0  0  0  0
   10.4948    7.2224    0.0000 C   0  0  0  0  0  0  0  0  0  0  0  0
    9.7622    8.5316    0.0000 C   0  0  0  0  0  0  0  0  0  0  0  0
   10.5297    9.8203    0.0000 N   0  0  0  0  0  0  0  0  0  0  0  0
    9.7974   11.1295    0.0000 C   0  0  0  0  0  0  0  0  0  0  0  0
   10.5649   12.4182    0.0000 O   0  0  0  0  0  0  0  0  0  0  0  0
    8.2976   11.1497    0.0000 N   0  0  0  0  0  0  0  0  0  0  0  0
   11.9457    7.2662    0.0000 N   0  0  0  0  0  0  0  0  0  0  0  0
   12.9491    6.3346    0.0000 C   0  0  0  0  0  0  0  0  0  0  0  0
   14.2126    7.1433    0.0000 O   0  0  0  0  0  0  0  0  0  0  0  0
    5.9088    4.6965    0.0000 C   0  0  0  0  0  0  0  0  0  0  0  0
    5.1938    3.3779    0.0000 C   0  0  0  0  0  0  0  0  0  0  0  0
    3.6944    3.3379    0.0000 C   0  0  0  0  0  0  0  0  0  0  0  0
    2.9100    4.6165    0.0000 N   0  0  0  0  0  0  0  0  0  0  0  0
    3.6253    5.9351    0.0000 C   0  0  0  0  0  0  0  0  0  0  0  0
    2.8409    7.2138    0.0000 N   0  0  0  0  0  0  0  0  0  0  0  0
    5.1247    5.9751    0.0000 N   0  0  0  0  0  0  0  0  0  0  0  0
  1  2  1  0  0  0  0
  2  3  1  0  0  0  0
  3  4  1  0  0  0  0
  4  5  1  0  0  0  0
  5  6  1  0  0  0  0
  5  7  1  0  0  0  0
  7  8  1  0  0  0  0
  8  9  2  0  0  0  0
  8 10  1  0  0  0  0
 10 11  1  0  0  0  0
 11 12  1  0  0  0  0
 13 12  1  0  0  0  0
 12 39  1  0  0  0  0
 14 13  1  0  0  0  0
 14 15  2  0  0  0  0
 16 14  1  0  0  0  0
 16 17  1  0  0  0  0
 19 16  1  0  0  0  0
 17 18  1  0  0  0  0
 20 19  1  0  0  0  0
 20 21  2  0  0  0  0
 22 20  1  0  0  0  0
 22 23  1  0  0  0  0
 24 22  1  0  0  0  0
 25 24  1  0  0  0  0
 26 25  1  0  0  0  0
 26 27  2  0  0  0  0
 28 26  1  0  0  0  0
 29 28  1  0  0  0  0
 28 41  1  0  0  0  0
 30 29  1  0  0  0  0
 30 31  2  0  0  0  0
 32 30  1  0  0  0  0
 32 33  2  0  0  0  0
 38 32  1  0  0  0  0
 33 34  1  0  0  0  0
 34 35  1  0  0  0  0
 35 36  2  0  0  0  0
 35 37  1  0  0  0  0
 39 38  1  0  0  0  0
 39 40  2  0  0  0  0
 42 41  1  0  0  0  0
 41 47  1  0  0  0  0
 43 42  1  0  0  0  0
 44 43  1  0  0  0  0
 45 44  2  0  0  0  0
 45 46  1  0  0  0  0
 47 45  1  0  0  0  0
M  END
> <Inchi_key>
JNIIDKODPGHQSS-DHDCSXOGSA-N

> <Source>
Mulliner , Kotsampasakou

> <ID>
EK0083;HT0364

> <H_MFHB>
0

> <CAS>


> <Cholestasis>
0

> <Name>
capreomycin sulfate;capreomycin

> <Class>
0


$$$$