
  -INDIGO-08031710012D

 36 39  0  0  0  0  0  0  0  0999 V2000
   -0.1966    0.1570    0.0000 C   0  0  0  0  0  0  0  0  0  0  0  0
   -0.5271    1.6202    0.0000 O   0  0  0  0  0  0  0  0  0  0  0  0
    0.5746    2.6381    0.0000 C   0  0  0  0  0  0  0  0  0  0  0  0
   -0.7873    3.2665    0.0000 N   0  0  0  0  0  0  0  0  0  0  0  0
   -2.0126    2.4011    0.0000 C   0  0  0  0  0  0  0  0  0  0  0  0
   -1.8759    0.9073    0.0000 O   0  0  0  0  0  0  0  0  0  0  0  0
   -3.3745    3.0296    0.0000 C   0  0  0  0  0  0  0  0  0  0  0  0
   -3.5114    4.5233    0.0000 C   0  0  0  0  0  0  0  0  0  0  0  0
   -2.2862    5.3886    0.0000 O   0  0  0  0  0  0  0  0  0  0  0  0
   -4.8733    5.1516    0.0000 O   0  0  0  0  0  0  0  0  0  0  0  0
   -4.5997    2.1641    0.0000 C   0  0  0  0  0  0  0  0  0  0  0  0
   -4.4631    0.6705    0.0000 C   0  0  0  0  0  0  0  0  0  0  0  0
   -5.6883   -0.1949    0.0000 C   0  0  0  0  0  0  0  0  0  0  0  0
   -7.0502    0.4336    0.0000 C   0  0  0  0  0  0  0  0  0  0  0  0
   -8.2755   -0.4317    0.0000 O   0  0  0  0  0  0  0  0  0  0  0  0
   -7.1872    1.9273    0.0000 C   0  0  0  0  0  0  0  0  0  0  0  0
   -5.9619    2.7926    0.0000 C   0  0  0  0  0  0  0  0  0  0  0  0
    1.7879    1.7560    0.0000 C   0  0  0  0  0  0  0  0  0  0  0  0
    2.3975    0.3855    0.0000 O   0  0  0  0  0  0  0  0  0  0  0  0
    3.8894    0.2282    0.0000 C   0  0  0  0  0  0  0  0  0  0  0  0
    4.7714    1.4415    0.0000 C   0  0  0  0  0  0  0  0  0  0  0  0
    4.1616    2.8120    0.0000 C   0  0  0  0  0  0  0  0  0  0  0  0
    2.6700    2.9692    0.0000 N   0  0  0  0  0  0  0  0  0  0  0  0
    1.4566    3.8514    0.0000 C   0  0  0  0  0  0  0  0  0  0  0  0
    1.2225    5.3329    0.0000 O   0  0  0  0  0  0  0  0  0  0  0  0
    5.0439    4.0252    0.0000 C   0  0  0  0  0  0  0  0  0  0  0  0
    6.5355    3.8680    0.0000 O   0  0  0  0  0  0  0  0  0  0  0  0
    4.4340    5.3957    0.0000 O   0  0  0  0  0  0  0  0  0  0  0  0
    6.2630    1.2841    0.0000 C   0  0  0  0  0  0  0  0  0  0  0  0
    6.8729   -0.0863    0.0000 S   0  0  0  0  0  0  0  0  0  0  0  0
    8.3645   -0.2436    0.0000 C   0  0  0  0  0  0  0  0  0  0  0  0
    9.3687    0.8708    0.0000 N   0  0  0  0  0  0  0  0  0  0  0  0
   10.7387    0.2602    0.0000 N   0  0  0  0  0  0  0  0  0  0  0  0
   10.5814   -1.2314    0.0000 N   0  0  0  0  0  0  0  0  0  0  0  0
    9.1142   -1.5429    0.0000 N   0  0  0  0  0  0  0  0  0  0  0  0
    8.5035   -2.9130    0.0000 C   0  0  0  0  0  0  0  0  0  0  0  0
  1  2  1  0  0  0  0
  2  3  1  0  0  0  0
  3  4  1  0  0  0  0
 18  3  1  0  0  0  0
  3 24  1  0  0  0  0
  4  5  1  0  0  0  0
  5  6  2  0  0  0  0
  5  7  1  0  0  0  0
  7  8  1  0  0  0  0
  7 11  1  0  0  0  0
  8  9  2  0  0  0  0
  8 10  1  0  0  0  0
 12 11  2  0  0  0  0
 11 17  1  0  0  0  0
 13 12  1  0  0  0  0
 14 13  2  0  0  0  0
 14 15  1  0  0  0  0
 16 14  1  0  0  0  0
 17 16  2  0  0  0  0
 19 18  1  0  0  0  0
 18 23  1  0  0  0  0
 20 19  1  0  0  0  0
 21 20  1  0  0  0  0
 22 21  2  0  0  0  0
 21 29  1  0  0  0  0
 23 22  1  0  0  0  0
 22 26  1  0  0  0  0
 24 23  1  0  0  0  0
 24 25  2  0  0  0  0
 26 27  2  0  0  0  0
 26 28  1  0  0  0  0
 29 30  1  0  0  0  0
 30 31  1  0  0  0  0
 32 31  2  0  0  0  0
 31 35  1  0  0  0  0
 33 32  1  0  0  0  0
 34 33  2  0  0  0  0
 35 34  1  0  0  0  0
 35 36  1  0  0  0  0
M  END
> <Inchi_key>
JWCSIUVGFCSJCK-UHFFFAOYSA-N

> <Source>
Mulliner , Kotsampasakou

> <ID>
EK0295;HT1437

> <H_MFHB>
0

> <CAS>


> <Cholestasis>
0

> <Name>
moxalactam disodium;moxalactam;latamoxef (moxalactam)

> <Class>
0

$$$$