

  -INDIGO-08031710012D

  8  8  0  0  0  0  0  0  0  0999 V2000
    7.2200    0.0000    0.0000 N   0  0  0  0  0  0  0  0  0  0  0  0
    5.7200    0.0000    0.0000 C   0  0  0  0  0  0  0  0  0  0  0  0
    4.9700   -1.2990    0.0000 C   0  0  0  0  0  0  0  0  0  0  0  0
    3.4700   -1.2990    0.0000 C   0  0  0  0  0  0  0  0  0  0  0  0
    2.5883   -0.0855    0.0000 C   0  0  0  0  0  0  0  0  0  0  0  0
    1.1617   -0.5490    0.0000 C   0  0  0  0  0  0  0  0  0  0  0  0
    1.1617   -2.0490    0.0000 N   0  0  0  0  0  0  0  0  0  0  0  0
    2.5883   -2.5126    0.0000 N   0  0  0  0  0  0  0  0  0  0  0  0
  1  2  1  0  0  0  0
  2  3  1  0  0  0  0
  3  4  1  0  0  0  0
  5  4  1  0  0  0  0
  4  8  2  0  0  0  0
  6  5  2  0  0  0  0
  7  6  1  0  0  0  0
  8  7  1  0  0  0  0
M  END
> <Inchi_key>
JXDFEQONERDKSS-UHFFFAOYSA-N

> <Source>
Mulliner

> <ID>
HT0276

> <H_MFHB>
0

> <CAS>


> <Cholestasis>


> <Name>
betazole

> <Class>
0


$$$$