

  -INDIGO-08031710012D

 36 39  0  0  0  0  0  0  0  0999 V2000
    0.4060   -2.9960    0.0000 O   0  0  0  0  0  0  0  0  0  0  0  0
    1.7048   -3.7459    0.0000 C   0  0  0  0  0  0  0  0  0  0  0  0
    3.0039   -2.9960    0.0000 N   0  0  0  0  0  0  0  0  0  0  0  0
    1.7048   -5.2461    0.0000 C   0  0  0  0  0  0  0  0  0  0  0  0
    3.0039   -5.9960    0.0000 C   0  0  0  0  0  0  0  0  0  0  0  0
    0.5903   -6.2497    0.0000 N   0  0  0  0  0  0  0  0  0  0  0  0
    4.3030   -5.2461    0.0000 N   0  0  0  0  0  0  0  0  0  0  0  0
    2.6920   -7.4632    0.0000 C   0  0  0  0  0  0  0  0  0  0  0  0
    1.2004   -7.6201    0.0000 N   0  0  0  0  0  0  0  0  0  0  0  0
   -0.8770   -5.9378    0.0000 C   0  0  0  0  0  0  0  0  0  0  0  0
    4.3030   -3.7459    0.0000 C   0  0  0  0  0  0  0  0  0  0  0  0
    3.6959   -8.5780    0.0000 C   0  0  0  0  0  0  0  0  0  0  0  0
    5.6021   -2.9960    0.0000 C   0  0  0  0  0  0  0  0  0  0  0  0
    3.2323  -10.0047    0.0000 C   0  0  0  0  0  0  0  0  0  0  0  0
    5.6021   -1.4960    0.0000 C   0  0  0  0  0  0  0  0  0  0  0  0
    6.9012   -3.7459    0.0000 C   0  0  0  0  0  0  0  0  0  0  0  0
    4.2359  -11.1193    0.0000 C   0  0  0  0  0  0  0  0  0  0  0  0
    4.3030   -0.7461    0.0000 O   0  0  0  0  0  0  0  0  0  0  0  0
    6.9012   -0.7461    0.0000 C   0  0  0  0  0  0  0  0  0  0  0  0
    8.2001   -2.9960    0.0000 C   0  0  0  0  0  0  0  0  0  0  0  0
    4.3030    0.7541    0.0000 C   0  0  0  0  0  0  0  0  0  0  0  0
    8.2001   -1.4960    0.0000 C   0  0  0  0  0  0  0  0  0  0  0  0
    9.4992   -3.7459    0.0000 S   0  0  0  0  0  0  0  0  0  0  0  0
    3.0039    1.5041    0.0000 C   0  0  0  0  0  0  0  0  0  0  0  0
    8.7491   -5.0450    0.0000 O   0  0  0  0  0  0  0  0  0  0  0  0
   10.2490   -2.4471    0.0000 O   0  0  0  0  0  0  0  0  0  0  0  0
   10.7983   -4.4961    0.0000 N   0  0  0  0  0  0  0  0  0  0  0  0
    3.0039    3.0040    0.0000 C   0  0  0  0  0  0  0  0  0  0  0  0
   12.0971   -3.7459    0.0000 C   0  0  0  0  0  0  0  0  0  0  0  0
   13.3962   -4.4961    0.0000 C   0  0  0  0  0  0  0  0  0  0  0  0
   14.6954   -3.7459    0.0000 C   0  0  0  0  0  0  0  0  0  0  0  0
   14.8520   -2.2544    0.0000 C   0  0  0  0  0  0  0  0  0  0  0  0
   16.0657   -4.3560    0.0000 N   0  0  0  0  0  0  0  0  0  0  0  0
   16.3192   -1.9423    0.0000 C   0  0  0  0  0  0  0  0  0  0  0  0
   17.0693   -3.2414    0.0000 C   0  0  0  0  0  0  0  0  0  0  0  0
   16.3776   -5.8234    0.0000 C   0  0  0  0  0  0  0  0  0  0  0  0
  1  2  2  0  0  0  0
  3  2  1  0  0  0  0
  2  4  1  0  0  0  0
  5  4  2  0  0  0  0
  4  6  1  0  0  0  0
  5  7  1  0  0  0  0
  8  5  1  0  0  0  0
  6  9  1  0  0  0  0
  6 10  1  0  0  0  0
  7 11  2  0  0  0  0
  8 12  1  0  0  0  0
  9  8  2  0  0  0  0
 11 13  1  0  0  0  0
 11  3  1  0  0  0  0
 12 14  1  0  0  0  0
 15 13  2  0  0  0  0
 13 16  1  0  0  0  0
 14 17  1  0  0  0  0
 15 18  1  0  0  0  0
 19 15  1  0  0  0  0
 16 20  2  0  0  0  0
 18 21  1  0  0  0  0
 22 19  2  0  0  0  0
 20 22  1  0  0  0  0
 20 23  1  0  0  0  0
 21 24  1  0  0  0  0
 23 25  2  0  0  0  0
 23 26  2  0  0  0  0
 23 27  1  0  0  0  0
 24 28  1  0  0  0  0
 27 29  1  0  0  0  0
 29 30  1  0  0  0  0
 30 31  1  0  0  0  0
 32 31  1  0  0  0  0
 31 33  1  0  0  0  0
 34 32  1  0  0  0  0
 33 35  1  0  0  0  0
 33 36  1  0  0  0  0
 35 34  1  0  0  0  0
M  END
> <Inchi_key>
IYFNEFQTYQPVOC-UHFFFAOYSA-N

> <Source>
Mulliner

> <ID>
HT2149

> <H_MFHB>
0

> <CAS>


> <Cholestasis>


> <Name>
udenafil

> <Class>
0


$$$$