
  -INDIGO-08031710012D

 35 38  0  0  0  0  0  0  0  0999 V2000
    7.3804    2.1276    0.0000 C   0  0  0  0  0  0  0  0  0  0  0  0
    6.1104    1.3291    0.0000 C   0  0  0  0  0  0  0  0  0  0  0  0
    4.7183    1.8870    0.0000 C   0  0  0  0  0  0  0  0  0  0  0  0
    3.7571    0.7353    0.0000 C   0  0  0  0  0  0  0  0  0  0  0  0
    2.2584    0.6787    0.0000 C   0  0  0  0  0  0  0  0  0  0  0  0
    1.4599    1.9484    0.0000 C   0  0  0  0  0  0  0  0  0  0  0  0
   -0.0391    1.8919    0.0000 C   0  0  0  0  0  0  0  0  0  0  0  0
   -0.8376    3.1617    0.0000 F   0  0  0  0  0  0  0  0  0  0  0  0
   -0.7394    0.5655    0.0000 C   0  0  0  0  0  0  0  0  0  0  0  0
   -2.2386    0.5089    0.0000 C   0  0  0  0  0  0  0  0  0  0  0  0
   -2.9390   -0.8175    0.0000 C   0  0  0  0  0  0  0  0  0  0  0  0
   -4.4379   -0.8741    0.0000 O   0  0  0  0  0  0  0  0  0  0  0  0
   -2.1404   -2.0873    0.0000 C   0  0  0  0  0  0  0  0  0  0  0  0
   -0.6415   -2.0307    0.0000 C   0  0  0  0  0  0  0  0  0  0  0  0
    0.0589   -0.7043    0.0000 C   0  0  0  0  0  0  0  0  0  0  0  0
    0.8574   -1.9741    0.0000 C   0  0  0  0  0  0  0  0  0  0  0  0
    1.5578   -0.6477    0.0000 C   0  0  0  0  0  0  0  0  0  0  0  0
    3.0567   -0.5911    0.0000 F   0  0  0  0  0  0  0  0  0  0  0  0
    2.3564   -1.9175    0.0000 C   0  0  0  0  0  0  0  0  0  0  0  0
    1.6560   -3.2439    0.0000 O   0  0  0  0  0  0  0  0  0  0  0  0
    3.8553   -1.8609    0.0000 C   0  0  0  0  0  0  0  0  0  0  0  0
    4.5556   -0.5345    0.0000 C   0  0  0  0  0  0  0  0  0  0  0  0
    5.4618   -1.7299    0.0000 C   0  0  0  0  0  0  0  0  0  0  0  0
    6.0100   -0.1675    0.0000 C   0  0  0  0  0  0  0  0  0  0  0  0
    6.5518   -1.5664    0.0000 O   0  0  0  0  0  0  0  0  0  0  0  0
    7.4996   -0.3461    0.0000 C   0  0  0  0  0  0  0  0  0  0  0  0
    8.3988    0.8544    0.0000 O   0  0  0  0  0  0  0  0  0  0  0  0
    8.0896   -1.7252    0.0000 C   0  0  0  0  0  0  0  0  0  0  0  0
    9.5789   -1.9037    0.0000 O   0  0  0  0  0  0  0  0  0  0  0  0
   10.1687   -3.2829    0.0000 C   0  0  0  0  0  0  0  0  0  0  0  0
    9.2695   -4.4834    0.0000 O   0  0  0  0  0  0  0  0  0  0  0  0
   11.6582   -3.4614    0.0000 C   0  0  0  0  0  0  0  0  0  0  0  0
   11.4795   -4.9508    0.0000 C   0  0  0  0  0  0  0  0  0  0  0  0
   11.8367   -1.9721    0.0000 C   0  0  0  0  0  0  0  0  0  0  0  0
   13.1475   -3.6400    0.0000 C   0  0  0  0  0  0  0  0  0  0  0  0
  1  2  1  0  0  0  0
  3  2  1  0  0  0  0
  2 24  1  0  0  0  0
  4  3  1  0  0  0  0
  5  4  1  0  0  0  0
  4 22  1  0  0  0  0
  6  5  1  0  0  0  0
  5 17  1  0  0  0  0
  7  6  1  0  0  0  0
  7  8  1  0  0  0  0
  9  7  1  0  0  0  0
 10  9  2  0  0  0  0
  9 15  1  0  0  0  0
 11 10  1  0  0  0  0
 11 12  2  0  0  0  0
 13 11  1  0  0  0  0
 14 13  2  0  0  0  0
 15 14  1  0  0  0  0
 15 16  1  0  0  0  0
 17 15  1  0  0  0  0
 17 18  1  0  0  0  0
 19 17  1  0  0  0  0
 19 20  1  0  0  0  0
 21 19  1  0  0  0  0
 22 21  1  0  0  0  0
 22 23  1  0  0  0  0
 24 22  1  0  0  0  0
 24 25  1  0  0  0  0
 24 26  1  0  0  0  0
 26 27  2  0  0  0  0
 26 28  1  0  0  0  0
 28 29  1  0  0  0  0
 29 30  1  0  0  0  0
 30 31  2  0  0  0  0
 30 32  1  0  0  0  0
 32 33  1  0  0  0  0
 32 34  1  0  0  0  0
 32 35  1  0  0  0  0
M  END
> <Inchi_key>
JWRMHDSINXPDHB-UHFFFAOYSA-N

> <Source>
Mulliner

> <ID>
HT0899

> <H_MFHB>
0

> <CAS>


> <Cholestasis>


> <Name>
flumethasone pivalate

> <Class>
0

$$$$