

  -INDIGO-08031710012D

 29 31  0  0  0  0  0  0  0  0999 V2000
    1.1898   -6.0920    0.0000 C   0  0  0  0  0  0  0  0  0  0  0  0
    1.9397   -4.7930    0.0000 C   0  0  0  0  0  0  0  0  0  0  0  0
    1.1898   -3.4940    0.0000 N   0  0  0  0  0  0  0  0  0  0  0  0
   -0.3103   -3.4940    0.0000 C   0  0  0  0  0  0  0  0  0  0  0  0
   -1.0603   -4.7930    0.0000 C   0  0  0  0  0  0  0  0  0  0  0  0
    1.9397   -2.1948    0.0000 C   0  0  0  0  0  0  0  0  0  0  0  0
    1.1898   -0.8960    0.0000 O   0  0  0  0  0  0  0  0  0  0  0  0
    3.4396   -2.1948    0.0000 C   0  0  0  0  0  0  0  0  0  0  0  0
    4.1896   -3.4940    0.0000 C   0  0  0  0  0  0  0  0  0  0  0  0
    5.6897   -3.4940    0.0000 N   0  0  0  0  0  0  0  0  0  0  0  0
    6.4397   -4.7930    0.0000 C   0  0  0  0  0  0  0  0  0  0  0  0
    7.9398   -4.7930    0.0000 C   0  0  0  0  0  0  0  0  0  0  0  0
    8.6898   -3.4940    0.0000 C   0  0  0  0  0  0  0  0  0  0  0  0
   10.1897   -3.4940    0.0000 C   0  0  0  0  0  0  0  0  0  0  0  0
   10.9396   -2.1948    0.0000 C   0  0  0  0  0  0  0  0  0  0  0  0
   12.4397   -2.1948    0.0000 O   0  0  0  0  0  0  0  0  0  0  0  0
   13.1897   -3.4940    0.0000 C   0  0  0  0  0  0  0  0  0  0  0  0
   10.1897   -0.8960    0.0000 C   0  0  0  0  0  0  0  0  0  0  0  0
   10.9396    0.4030    0.0000 O   0  0  0  0  0  0  0  0  0  0  0  0
   10.1897    1.7022    0.0000 C   0  0  0  0  0  0  0  0  0  0  0  0
    8.6898   -0.8960    0.0000 C   0  0  0  0  0  0  0  0  0  0  0  0
    7.9398   -2.1948    0.0000 C   0  0  0  0  0  0  0  0  0  0  0  0
    6.4397   -2.1948    0.0000 C   0  0  0  0  0  0  0  0  0  0  0  0
    5.6897   -0.8960    0.0000 C   0  0  0  0  0  0  0  0  0  0  0  0
    4.1896   -0.8960    0.0000 C   0  0  0  0  0  0  0  0  0  0  0  0
    3.4396    0.4030    0.0000 O   0  0  0  0  0  0  0  0  0  0  0  0
    4.1896    1.7022    0.0000 C   0  0  0  0  0  0  0  0  0  0  0  0
    5.6897    1.7022    0.0000 O   0  0  0  0  0  0  0  0  0  0  0  0
    3.4396    3.0012    0.0000 C   0  0  0  0  0  0  0  0  0  0  0  0
  1  2  1  0  0  0  0
  2  3  1  0  0  0  0
  3  4  1  0  0  0  0
  3  6  1  0  0  0  0
  4  5  1  0  0  0  0
  6  7  2  0  0  0  0
  6  8  1  0  0  0  0
  9  8  1  0  0  0  0
  8 25  1  0  0  0  0
 10  9  1  0  0  0  0
 11 10  1  0  0  0  0
 10 23  1  0  0  0  0
 12 11  1  0  0  0  0
 13 12  1  0  0  0  0
 14 13  2  0  0  0  0
 13 22  1  0  0  0  0
 15 14  1  0  0  0  0
 15 16  1  0  0  0  0
 18 15  2  0  0  0  0
 16 17  1  0  0  0  0
 18 19  1  0  0  0  0
 21 18  1  0  0  0  0
 19 20  1  0  0  0  0
 22 21  2  0  0  0  0
 23 22  1  0  0  0  0
 24 23  1  0  0  0  0
 25 24  1  0  0  0  0
 25 26  1  0  0  0  0
 26 27  1  0  0  0  0
 27 28  2  0  0  0  0
 27 29  1  0  0  0  0
M  END
> <Inchi_key>
JSZILQVIPPROJI-UHFFFAOYSA-N

> <Source>
Mulliner

> <ID>
HT0254

> <H_MFHB>
0

> <CAS>


> <Cholestasis>


> <Name>
benzquinamide;benzquinamide hydrochloride

> <Class>
0


$$$$