
  -INDIGO-08031710012D

 11 10  0  0  0  0  0  0  0  0999 V2000
    3.1033    0.0330    0.0000 C   0  0  0  0  0  0  0  0  0  0  0  0
    3.1033   -1.4670    0.0000 C   0  0  0  0  0  0  0  0  0  0  0  0
    4.4024   -2.2170    0.0000 C   0  0  0  0  0  0  0  0  0  0  0  0
    5.7014   -1.4670    0.0000 C   0  0  0  0  0  0  0  0  0  0  0  0
    7.0005   -2.2170    0.0000 O   0  0  0  0  0  0  0  0  0  0  0  0
    1.8044   -2.2170    0.0000 C   0  0  0  0  0  0  0  0  0  0  0  0
    0.5054   -1.4670    0.0000 C   0  0  0  0  0  0  0  0  0  0  0  0
   -0.7937   -2.2170    0.0000 C   0  0  0  0  0  0  0  0  0  0  0  0
   -2.0927   -1.4670    0.0000 C   0  0  0  0  0  0  0  0  0  0  0  0
   -3.3918   -2.2170    0.0000 C   0  0  0  0  0  0  0  0  0  0  0  0
   -2.0927    0.0330    0.0000 C   0  0  0  0  0  0  0  0  0  0  0  0
  1  2  1  0  0  0  0
  2  3  1  0  0  0  0
  2  6  1  0  0  0  0
  3  4  1  0  0  0  0
  4  5  1  0  0  0  0
  6  7  1  0  0  0  0
  7  8  1  0  0  0  0
  8  9  1  0  0  0  0
  9 10  2  0  0  0  0
  9 11  1  0  0  0  0
M  END
> <Inchi_key>
JGQFVRIQXUFPAH-UHFFFAOYSA-N

> <Source>
Mulliner

> <ID>
HT2659

> <H_MFHB>
0

> <CAS>


> <Cholestasis>


> <Name>


> <Class>
0

$$$$