
  -INDIGO-08031710012D

 21 22  0  0  0  0  0  0  0  0999 V2000
    1.4051   -1.0781    0.0000 O   0  0  0  0  0  0  0  0  0  0  0  0
    1.0168    0.3707    0.0000 C   0  0  0  0  0  0  0  0  0  0  0  0
   -0.4774    0.2400    0.0000 C   0  0  0  0  0  0  0  0  0  0  0  0
   -1.1114   -1.1195    0.0000 Cl  0  0  0  0  0  0  0  0  0  0  0  0
   -1.3378    1.4687    0.0000 C   0  0  0  0  0  0  0  0  0  0  0  0
   -0.7038    2.8282    0.0000 C   0  0  0  0  0  0  0  0  0  0  0  0
   -1.5643    4.0569    0.0000 Cl  0  0  0  0  0  0  0  0  0  0  0  0
    0.7904    2.9589    0.0000 C   0  0  0  0  0  0  0  0  0  0  0  0
    1.4243    4.3184    0.0000 Cl  0  0  0  0  0  0  0  0  0  0  0  0
    1.6509    1.7302    0.0000 C   0  0  0  0  0  0  0  0  0  0  0  0
    3.0997    1.3421    0.0000 C   0  0  0  0  0  0  0  0  0  0  0  0
    4.1603    2.4026    0.0000 C   0  0  0  0  0  0  0  0  0  0  0  0
    4.2911    3.8969    0.0000 C   0  0  0  0  0  0  0  0  0  0  0  0
    3.0622    4.7573    0.0000 O   0  0  0  0  0  0  0  0  0  0  0  0
    5.6505    4.5309    0.0000 C   0  0  0  0  0  0  0  0  0  0  0  0
    5.7812    6.0251    0.0000 Cl  0  0  0  0  0  0  0  0  0  0  0  0
    6.8791    3.6705    0.0000 C   0  0  0  0  0  0  0  0  0  0  0  0
    6.7485    2.1762    0.0000 C   0  0  0  0  0  0  0  0  0  0  0  0
    7.9772    1.3158    0.0000 Cl  0  0  0  0  0  0  0  0  0  0  0  0
    5.3890    1.5423    0.0000 C   0  0  0  0  0  0  0  0  0  0  0  0
    5.7773    0.0935    0.0000 Cl  0  0  0  0  0  0  0  0  0  0  0  0
  1  2  1  0  0  0  0
  3  2  2  0  0  0  0
  2 10  1  0  0  0  0
  3  4  1  0  0  0  0
  5  3  1  0  0  0  0
  6  5  2  0  0  0  0
  6  7  1  0  0  0  0
  8  6  1  0  0  0  0
  8  9  1  0  0  0  0
 10  8  2  0  0  0  0
 10 11  1  0  0  0  0
 11 12  1  0  0  0  0
 13 12  2  0  0  0  0
 12 20  1  0  0  0  0
 13 14  1  0  0  0  0
 15 13  1  0  0  0  0
 15 16  1  0  0  0  0
 17 15  2  0  0  0  0
 18 17  1  0  0  0  0
 18 19  1  0  0  0  0
 20 18  2  0  0  0  0
 20 21  1  0  0  0  0
M  END
> <Inchi_key>
ACGUYXCXAPNIKK-UHFFFAOYSA-N

> <Source>
Mulliner

> <ID>
HT1030

> <H_MFHB>
0

> <CAS>


> <Cholestasis>


> <Name>
hexachlorophene

> <Class>
0

$$$$