
  -INDIGO-08031710012D

 19 18  0  0  0  0  0  0  0  0999 V2000
   10.5077   -6.0666    0.0000 C   0  0  0  0  0  0  0  0  0  0  0  0
    9.7578   -4.7676    0.0000 C   0  0  0  0  0  0  0  0  0  0  0  0
    8.2577   -4.7676    0.0000 O   0  0  0  0  0  0  0  0  0  0  0  0
    7.5077   -3.4686    0.0000 C   0  0  0  0  0  0  0  0  0  0  0  0
    8.2577   -2.1694    0.0000 O   0  0  0  0  0  0  0  0  0  0  0  0
    6.0076   -3.4686    0.0000 C   0  0  0  0  0  0  0  0  0  0  0  0
    5.2577   -2.1694    0.0000 C   0  0  0  0  0  0  0  0  0  0  0  0
    3.7577   -2.1694    0.0000 S   0  0  0  0  0  0  0  0  0  0  0  0
    3.0077   -3.4686    0.0000 P   0  0  0  0  0  0  0  0  0  0  0  0
    4.3068   -4.2185    0.0000 S   0  0  0  0  0  0  0  0  0  0  0  0
    1.7086   -2.7186    0.0000 O   0  0  0  0  0  0  0  0  0  0  0  0
    0.4097   -3.4686    0.0000 C   0  0  0  0  0  0  0  0  0  0  0  0
    2.2576   -4.7676    0.0000 O   0  0  0  0  0  0  0  0  0  0  0  0
    3.0077   -6.0666    0.0000 C   0  0  0  0  0  0  0  0  0  0  0  0
    6.0076   -0.8706    0.0000 C   0  0  0  0  0  0  0  0  0  0  0  0
    7.5077   -0.8706    0.0000 O   0  0  0  0  0  0  0  0  0  0  0  0
    5.2577    0.4284    0.0000 O   0  0  0  0  0  0  0  0  0  0  0  0
    6.0076    1.7276    0.0000 C   0  0  0  0  0  0  0  0  0  0  0  0
    5.2577    3.0266    0.0000 C   0  0  0  0  0  0  0  0  0  0  0  0
  1  2  1  0  0  0  0
  2  3  1  0  0  0  0
  3  4  1  0  0  0  0
  4  5  2  0  0  0  0
  4  6  1  0  0  0  0
  6  7  1  0  0  0  0
  7  8  1  0  0  0  0
  7 15  1  0  0  0  0
  8  9  1  0  0  0  0
  9 10  2  0  0  0  0
  9 11  1  0  0  0  0
  9 13  1  0  0  0  0
 11 12  1  0  0  0  0
 13 14  1  0  0  0  0
 15 16  2  0  0  0  0
 15 17  1  0  0  0  0
 17 18  1  0  0  0  0
 18 19  1  0  0  0  0
M  END
> <Inchi_key>
JXSJBGJIGXNWCI-UHFFFAOYSA-N

> <Source>
Mulliner , Kotsampasakou

> <ID>
EK0311;HT1265

> <H_MFHB>
0

> <CAS>
121-75-5

> <Cholestasis>
0

> <Name>
malathion

> <Class>
0

$$$$