

  -INDIGO-08031710012D

 22 25  0  0  0  0  0  0  0  0999 V2000
    5.1559   -0.6635    0.0000 C   0  0  0  0  0  0  0  0  0  0  0  0
    4.3007    0.5689    0.0000 C   0  0  0  0  0  0  0  0  0  0  0  0
    3.5453   -0.7270    0.0000 C   0  0  0  0  0  0  0  0  0  0  0  0
    2.0453   -0.7207    0.0000 C   0  0  0  0  0  0  0  0  0  0  0  0
    1.3007    0.5815    0.0000 C   0  0  0  0  0  0  0  0  0  0  0  0
    2.0561    1.8774    0.0000 C   0  0  0  0  0  0  0  0  0  0  0  0
    1.3117    3.1796    0.0000 C   0  0  0  0  0  0  0  0  0  0  0  0
   -0.1882    3.1859    0.0000 C   0  0  0  0  0  0  0  0  0  0  0  0
   -0.9438    1.8900    0.0000 C   0  0  0  0  0  0  0  0  0  0  0  0
   -2.4438    1.8963    0.0000 C   0  0  0  0  0  0  0  0  0  0  0  0
   -3.1992    0.6005    0.0000 C   0  0  0  0  0  0  0  0  0  0  0  0
   -2.4546   -0.7017    0.0000 C   0  0  0  0  0  0  0  0  0  0  0  0
   -0.9546   -0.7080    0.0000 C   0  0  0  0  0  0  0  0  0  0  0  0
   -0.1993    0.5878    0.0000 C   0  0  0  0  0  0  0  0  0  0  0  0
    3.5563    1.8711    0.0000 C   0  0  0  0  0  0  0  0  0  0  0  0
    4.5646    2.9815    0.0000 C   0  0  0  0  0  0  0  0  0  0  0  0
    5.9323    2.3657    0.0000 C   0  0  0  0  0  0  0  0  0  0  0  0
    5.7692    0.8746    0.0000 C   0  0  0  0  0  0  0  0  0  0  0  0
    6.2516   -0.5458    0.0000 O   0  0  0  0  0  0  0  0  0  0  0  0
    7.2497    0.6337    0.0000 C   0  0  0  0  0  0  0  0  0  0  0  0
    8.1987    1.7954    0.0000 C   0  0  0  0  0  0  0  0  0  0  0  0
    9.6792    1.5545    0.0000 C   0  0  0  0  0  0  0  0  0  0  0  0
  1  2  1  0  0  0  0
  3  2  1  0  0  0  0
 15  2  1  0  0  0  0
  2 18  1  0  0  0  0
  4  3  1  0  0  0  0
  5  4  1  0  0  0  0
  5  6  1  0  0  0  0
 14  5  1  0  0  0  0
  6  7  1  0  0  0  0
 15  6  1  0  0  0  0
  7  8  1  0  0  0  0
  8  9  1  0  0  0  0
 10  9  2  0  0  0  0
  9 14  1  0  0  0  0
 11 10  1  0  0  0  0
 12 11  1  0  0  0  0
 13 12  1  0  0  0  0
 14 13  1  0  0  0  0
 16 15  1  0  0  0  0
 17 16  1  0  0  0  0
 18 17  1  0  0  0  0
 18 19  1  0  0  0  0
 18 20  1  0  0  0  0
 20 21  1  0  0  0  0
 21 22  2  0  0  0  0
M  END
> <Inchi_key>
ATXHVCQZZJYMCF-UHFFFAOYSA-N

> <Source>
Mulliner

> <ID>
HT0107

> <H_MFHB>
0

> <CAS>


> <Cholestasis>


> <Name>
allylestrenol

> <Class>
0


$$$$