
  -INDIGO-08031709442D

 59 67  0  0  0  0  0  0  0  0999 V2000
   -0.0082   -3.8393    0.0000 O   0  0  0  0  0  0  0  0  0  0  0  0
    0.7187   -5.1515    0.0000 C   0  0  0  0  0  0  0  0  0  0  0  0
   -1.5082   -3.8127    0.0000 C   0  0  0  0  0  0  0  0  0  0  0  0
   -2.6741   -4.7565    0.0000 C   0  0  0  0  0  0  0  0  0  0  0  0
   -4.0741   -4.2160    0.0000 C   0  0  0  0  0  0  0  0  0  0  0  0
   -5.4096   -4.8962    0.0000 N   0  0  0  0  0  0  0  0  0  0  0  0
   -6.4719   -3.8409    0.0000 C   0  0  0  0  0  0  0  0  0  0  0  0
   -5.7842   -2.4921    0.0000 C   0  0  0  0  0  0  0  0  0  0  0  0
   -6.6158   -1.2724    0.0000 C   0  0  0  0  0  0  0  0  0  0  0  0
   -5.8468   -0.0133    0.0000 N   0  0  0  0  0  0  0  0  0  0  0  0
   -6.6043    1.2994    0.0000 C   0  0  0  0  0  0  0  0  0  0  0  0
   -8.1074    1.3042    0.0000 C   0  0  0  0  0  0  0  0  0  0  0  0
   -8.8564    0.0026    0.0000 C   0  0  0  0  0  0  0  0  0  0  0  0
   -8.1047   -1.3104    0.0000 C   0  0  0  0  0  0  0  0  0  0  0  0
   -9.6045   -1.3259    0.0000 C   0  0  0  0  0  0  0  0  0  0  0  0
  -10.3679   -0.0345    0.0000 C   0  0  0  0  0  0  0  0  0  0  0  0
   -8.7873   -2.6607    0.0000 C   0  0  0  0  0  0  0  0  0  0  0  0
  -10.2850   -2.7402    0.0000 O   0  0  0  0  0  0  0  0  0  0  0  0
  -10.9653   -4.0773    0.0000 C   0  0  0  0  0  0  0  0  0  0  0  0
  -10.1473   -5.3347    0.0000 O   0  0  0  0  0  0  0  0  0  0  0  0
  -12.4630   -4.1567    0.0000 C   0  0  0  0  0  0  0  0  0  0  0  0
   -7.9717   -3.9219    0.0000 C   0  0  0  0  0  0  0  0  0  0  0  0
   -9.2552   -4.6981    0.0000 O   0  0  0  0  0  0  0  0  0  0  0  0
   -7.9714   -5.4219    0.0000 C   0  0  0  0  0  0  0  0  0  0  0  0
   -9.2702   -6.1721    0.0000 O   0  0  0  0  0  0  0  0  0  0  0  0
   -9.2699   -7.6721    0.0000 C   0  0  0  0  0  0  0  0  0  0  0  0
   -6.6722   -6.1715    0.0000 O   0  0  0  0  0  0  0  0  0  0  0  0
   -4.3907   -0.4643    0.0000 C   0  0  0  0  0  0  0  0  0  0  0  0
   -4.3535   -1.9660    0.0000 C   0  0  0  0  0  0  0  0  0  0  0  0
   -4.3084   -2.7370    0.0000 C   0  0  0  0  0  0  0  0  0  0  0  0
   -3.1428   -1.7935    0.0000 C   0  0  0  0  0  0  0  0  0  0  0  0
   -1.7425   -2.3312    0.0000 C   0  0  0  0  0  0  0  0  0  0  0  0
   -0.3241   -1.8433    0.0000 C   0  0  0  0  0  0  0  0  0  0  0  0
    0.6370   -3.0791    0.0000 C   0  0  0  0  0  0  0  0  0  0  0  0
    2.1910   -2.6406    0.0000 C   0  0  0  0  0  0  0  0  0  0  0  0
    3.4044   -3.4541    0.0000 C   0  0  0  0  0  0  0  0  0  0  0  0
    4.7277   -2.8355    0.0000 C   0  0  0  0  0  0  0  0  0  0  0  0
    6.2228   -2.9560    0.0000 O   0  0  0  0  0  0  0  0  0  0  0  0
    4.8507   -1.3810    0.0000 C   0  0  0  0  0  0  0  0  0  0  0  0
    3.6675   -0.5233    0.0000 N   0  0  0  0  0  0  0  0  0  0  0  0
    2.3338   -1.1670    0.0000 C   0  0  0  0  0  0  0  0  0  0  0  0
    3.5333    1.0860    0.0000 C   0  0  0  0  0  0  0  0  0  0  0  0
    2.0406    1.5509    0.0000 C   0  0  0  0  0  0  0  0  0  0  0  0
    0.8243    0.7286    0.0000 C   0  0  0  0  0  0  0  0  0  0  0  0
    0.0225   -0.4148    0.0000 C   0  0  0  0  0  0  0  0  0  0  0  0
   -1.4153   -0.0526    0.0000 N   0  0  0  0  0  0  0  0  0  0  0  0
   -1.4903    1.4456    0.0000 C   0  0  0  0  0  0  0  0  0  0  0  0
   -0.0884    1.9798    0.0000 C   0  0  0  0  0  0  0  0  0  0  0  0
    0.1496    3.4606    0.0000 C   0  0  0  0  0  0  0  0  0  0  0  0
   -1.0138    4.4075    0.0000 C   0  0  0  0  0  0  0  0  0  0  0  0
   -2.4154    3.8733    0.0000 C   0  0  0  0  0  0  0  0  0  0  0  0
   -2.6537    2.3925    0.0000 C   0  0  0  0  0  0  0  0  0  0  0  0
    5.3744   -4.1890    0.0000 C   0  0  0  0  0  0  0  0  0  0  0  0
    6.8697   -4.3056    0.0000 C   0  0  0  0  0  0  0  0  0  0  0  0
   -2.7009   -1.0682    0.0000 C   0  0  0  0  0  0  0  0  0  0  0  0
   -3.0110    0.3996    0.0000 O   0  0  0  0  0  0  0  0  0  0  0  0
   -4.4373    0.8646    0.0000 C   0  0  0  0  0  0  0  0  0  0  0  0
   -3.8166   -2.0705    0.0000 O   0  0  0  0  0  0  0  0  0  0  0  0
   -5.6421   -6.3782    0.0000 C   0  0  0  0  0  0  0  0  0  0  0  0
  1  2  1  0  0  0  0
  1  3  1  0  0  0  0
  4  3  2  0  0  0  0
  3 32  1  0  0  0  0
  5  4  1  0  0  0  0
  6  5  1  0  0  0  0
  5 30  2  0  0  0  0
  7  6  1  0  0  0  0
  6 59  1  0  0  0  0
  7  8  1  0  0  0  0
 22  7  1  0  0  0  0
  9  8  1  0  0  0  0
  8 29  1  0  0  0  0
 30  8  1  0  0  0  0
  9 10  1  0  0  0  0
 14  9  1  0  0  0  0
 10 11  1  0  0  0  0
 28 10  1  0  0  0  0
 11 12  1  0  0  0  0
 12 13  2  0  0  0  0
 13 14  1  0  0  0  0
 14 15  1  0  0  0  0
 14 17  1  0  0  0  0
 15 16  1  0  0  0  0
 17 18  1  0  0  0  0
 17 22  1  0  0  0  0
 18 19  1  0  0  0  0
 19 20  2  0  0  0  0
 19 21  1  0  0  0  0
 22 23  1  0  0  0  0
 22 24  1  0  0  0  0
 24 25  1  0  0  0  0
 24 27  2  0  0  0  0
 25 26  1  0  0  0  0
 29 28  1  0  0  0  0
 31 30  1  0  0  0  0
 32 31  2  0  0  0  0
 32 33  1  0  0  0  0
 34 33  1  0  0  0  0
 33 45  1  0  0  0  0
 33 55  1  0  0  0  0
 35 34  1  0  0  0  0
 35 36  1  0  0  0  0
 41 35  1  0  0  0  0
 36 37  1  0  0  0  0
 37 38  1  0  0  0  0
 37 39  1  0  0  0  0
 37 53  1  0  0  0  0
 39 40  1  0  0  0  0
 40 41  1  0  0  0  0
 42 40  1  0  0  0  0
 43 42  1  0  0  0  0
 44 43  1  0  0  0  0
 44 45  2  0  0  0  0
 48 44  1  0  0  0  0
 45 46  1  0  0  0  0
 46 47  1  0  0  0  0
 48 47  2  0  0  0  0
 47 52  1  0  0  0  0
 49 48  1  0  0  0  0
 50 49  2  0  0  0  0
 51 50  1  0  0  0  0
 52 51  2  0  0  0  0
 53 54  1  0  0  0  0
 55 56  1  0  0  0  0
 55 58  2  0  0  0  0
 56 57  1  0  0  0  0
M  END
> <Inchi_key>
JXLYSJRDGCGARV-UHFFFAOYSA-N

> <Source>
Kotsampasakou

> <ID>
EK0565

> <H_MFHB>


> <CAS>


> <Cholestasis>
0

> <Name>
vinblastine

> <Class>
0

$$$$