

  -INDIGO-08031710012D

 30 33  0  0  0  0  0  0  0  0999 V2000
    3.8689    1.9292    0.0000 C   0  0  0  0  0  0  0  0  0  0  0  0
    2.9663    0.7312    0.0000 C   0  0  0  0  0  0  0  0  0  0  0  0
    2.2620    2.0555    0.0000 C   0  0  0  0  0  0  0  0  0  0  0  0
    0.7629    2.1077    0.0000 C   0  0  0  0  0  0  0  0  0  0  0  0
    0.0586    3.4321    0.0000 O   0  0  0  0  0  0  0  0  0  0  0  0
   -0.0319    0.8356    0.0000 C   0  0  0  0  0  0  0  0  0  0  0  0
    0.6724   -0.4888    0.0000 C   0  0  0  0  0  0  0  0  0  0  0  0
   -0.1224   -1.7609    0.0000 C   0  0  0  0  0  0  0  0  0  0  0  0
   -1.6215   -1.7087    0.0000 C   0  0  0  0  0  0  0  0  0  0  0  0
   -2.3258   -0.3844    0.0000 C   0  0  0  0  0  0  0  0  0  0  0  0
   -3.8248   -0.3322    0.0000 C   0  0  0  0  0  0  0  0  0  0  0  0
   -4.5291    0.9922    0.0000 C   0  0  0  0  0  0  0  0  0  0  0  0
   -6.0282    1.0444    0.0000 O   0  0  0  0  0  0  0  0  0  0  0  0
   -3.7343    2.2643    0.0000 C   0  0  0  0  0  0  0  0  0  0  0  0
   -2.2352    2.2121    0.0000 C   0  0  0  0  0  0  0  0  0  0  0  0
   -1.5310    0.8878    0.0000 C   0  0  0  0  0  0  0  0  0  0  0  0
   -0.7362    2.1599    0.0000 C   0  0  0  0  0  0  0  0  0  0  0  0
    2.1715   -0.5410    0.0000 C   0  0  0  0  0  0  0  0  0  0  0  0
    3.1360   -1.6899    0.0000 C   0  0  0  0  0  0  0  0  0  0  0  0
    4.5265   -1.1279    0.0000 C   0  0  0  0  0  0  0  0  0  0  0  0
    4.4217    0.3684    0.0000 C   0  0  0  0  0  0  0  0  0  0  0  0
    4.9593    1.7689    0.0000 O   0  0  0  0  0  0  0  0  0  0  0  0
    5.9105    0.5514    0.0000 C   0  0  0  0  0  0  0  0  0  0  0  0
    6.4967    1.9322    0.0000 O   0  0  0  0  0  0  0  0  0  0  0  0
    6.8134   -0.6465    0.0000 C   0  0  0  0  0  0  0  0  0  0  0  0
    8.3022   -0.4635    0.0000 O   0  0  0  0  0  0  0  0  0  0  0  0
    9.2050   -1.6614    0.0000 P   0  0  0  0  0  0  0  0  0  0  0  0
    8.0071   -2.5642    0.0000 O   0  0  0  0  0  0  0  0  0  0  0  0
   10.1079   -2.8592    0.0000 O   0  0  0  0  0  0  0  0  0  0  0  0
   10.4030   -0.7585    0.0000 O   0  0  0  0  0  0  0  0  0  0  0  0
  1  2  1  0  0  0  0
  3  2  1  0  0  0  0
 18  2  1  0  0  0  0
  2 21  1  0  0  0  0
  4  3  1  0  0  0  0
  4  5  1  0  0  0  0
  6  4  1  0  0  0  0
  6  7  1  0  0  0  0
 16  6  1  0  0  0  0
  7  8  1  0  0  0  0
 18  7  1  0  0  0  0
  8  9  1  0  0  0  0
  9 10  1  0  0  0  0
 11 10  2  0  0  0  0
 10 16  1  0  0  0  0
 12 11  1  0  0  0  0
 12 13  2  0  0  0  0
 14 12  1  0  0  0  0
 15 14  2  0  0  0  0
 16 15  1  0  0  0  0
 16 17  1  0  0  0  0
 19 18  1  0  0  0  0
 20 19  1  0  0  0  0
 21 20  1  0  0  0  0
 21 22  1  0  0  0  0
 21 23  1  0  0  0  0
 23 24  2  0  0  0  0
 23 25  1  0  0  0  0
 25 26  1  0  0  0  0
 26 27  1  0  0  0  0
 27 28  2  0  0  0  0
 27 29  1  0  0  0  0
 27 30  1  0  0  0  0
M  END
> <Inchi_key>
JDOZJEUDSLGTLU-UHFFFAOYSA-N

> <Source>
Mulliner

> <ID>
HT1732

> <H_MFHB>
0

> <CAS>


> <Cholestasis>


> <Name>
prednisolone sodium phosphate

> <Class>
0


$$$$