

  -INDIGO-08031710012D

 43 46  0  0  0  0  0  0  0  0999 V2000
    1.7619    6.5761    0.0000 C   0  0  0  0  0  0  0  0  0  0  0  0
    3.0613    5.8261    0.0000 N   0  0  0  0  0  0  0  0  0  0  0  0
    4.3602    6.5761    0.0000 C   0  0  0  0  0  0  0  0  0  0  0  0
    3.0613    4.3261    0.0000 C   0  0  0  0  0  0  0  0  0  0  0  0
    1.7619    3.5761    0.0000 C   0  0  0  0  0  0  0  0  0  0  0  0
    0.4630    4.3261    0.0000 C   0  0  0  0  0  0  0  0  0  0  0  0
   -0.8360    3.5761    0.0000 C   0  0  0  0  0  0  0  0  0  0  0  0
   -0.8360    2.0761    0.0000 C   0  0  0  0  0  0  0  0  0  0  0  0
    0.4630    1.3261    0.0000 C   0  0  0  0  0  0  0  0  0  0  0  0
    0.4630   -0.1739    0.0000 O   0  0  0  0  0  0  0  0  0  0  0  0
    1.7619    2.0761    0.0000 C   0  0  0  0  0  0  0  0  0  0  0  0
    1.7619    0.5761    0.0000 O   0  0  0  0  0  0  0  0  0  0  0  0
    3.0613    1.3261    0.0000 C   0  0  0  0  0  0  0  0  0  0  0  0
    4.3602    2.0761    0.0000 C   0  0  0  0  0  0  0  0  0  0  0  0
    5.6592    1.3261    0.0000 C   0  0  0  0  0  0  0  0  0  0  0  0
    5.6592   -0.1739    0.0000 O   0  0  0  0  0  0  0  0  0  0  0  0
    6.9581    2.0761    0.0000 N   0  0  0  0  0  0  0  0  0  0  0  0
    8.2571    1.3261    0.0000 C   0  0  0  0  0  0  0  0  0  0  0  0
    9.5564    2.0761    0.0000 N   0  0  0  0  0  0  0  0  0  0  0  0
   10.8554    1.3261    0.0000 C   0  0  0  0  0  0  0  0  0  0  0  0
   12.1543    2.0761    0.0000 C   0  0  0  0  0  0  0  0  0  0  0  0
   13.4533    1.3261    0.0000 C   0  0  0  0  0  0  0  0  0  0  0  0
   14.7523    2.0761    0.0000 C   0  0  0  0  0  0  0  0  0  0  0  0
   16.0516    1.3261    0.0000 C   0  0  0  0  0  0  0  0  0  0  0  0
   16.0516   -0.1739    0.0000 N   0  0  0  0  0  0  0  0  0  0  0  0
   17.3505    2.0761    0.0000 C   0  0  0  0  0  0  0  0  0  0  0  0
   17.3505    3.5761    0.0000 O   0  0  0  0  0  0  0  0  0  0  0  0
   18.6495    1.3261    0.0000 O   0  0  0  0  0  0  0  0  0  0  0  0
    4.3602    3.5761    0.0000 C   0  0  0  0  0  0  0  0  0  0  0  0
    5.6592    4.3261    0.0000 O   0  0  0  0  0  0  0  0  0  0  0  0
    3.0613   -0.1739    0.0000 O   0  0  0  0  0  0  0  0  0  0  0  0
   -2.1350    1.3261    0.0000 C   0  0  0  0  0  0  0  0  0  0  0  0
   -2.1350   -0.1739    0.0000 O   0  0  0  0  0  0  0  0  0  0  0  0
   -3.4343    2.0761    0.0000 C   0  0  0  0  0  0  0  0  0  0  0  0
   -4.7332    1.3261    0.0000 C   0  0  0  0  0  0  0  0  0  0  0  0
   -4.7332   -0.1739    0.0000 O   0  0  0  0  0  0  0  0  0  0  0  0
   -6.0322    2.0761    0.0000 C   0  0  0  0  0  0  0  0  0  0  0  0
   -6.0322    3.5761    0.0000 C   0  0  0  0  0  0  0  0  0  0  0  0
   -4.7332    4.3261    0.0000 C   0  0  0  0  0  0  0  0  0  0  0  0
   -3.4343    3.5761    0.0000 C   0  0  0  0  0  0  0  0  0  0  0  0
   -2.1350    4.3261    0.0000 C   0  0  0  0  0  0  0  0  0  0  0  0
   -1.3851    5.6251    0.0000 C   0  0  0  0  0  0  0  0  0  0  0  0
   -2.8852    5.6251    0.0000 O   0  0  0  0  0  0  0  0  0  0  0  0
  1  2  1  0  0  0  0
  2  3  1  0  0  0  0
  2  4  1  0  0  0  0
  5  4  1  0  0  0  0
  4 29  1  0  0  0  0
  6  5  1  0  0  0  0
  5 11  1  0  0  0  0
  7  6  1  0  0  0  0
  7  8  1  0  0  0  0
 41  7  1  0  0  0  0
  9  8  2  0  0  0  0
  8 32  1  0  0  0  0
  9 10  1  0  0  0  0
 11  9  1  0  0  0  0
 11 12  1  0  0  0  0
 13 11  1  0  0  0  0
 14 13  2  0  0  0  0
 13 31  1  0  0  0  0
 14 15  1  0  0  0  0
 29 14  1  0  0  0  0
 15 16  2  0  0  0  0
 15 17  1  0  0  0  0
 17 18  1  0  0  0  0
 18 19  1  0  0  0  0
 19 20  1  0  0  0  0
 20 21  1  0  0  0  0
 21 22  1  0  0  0  0
 22 23  1  0  0  0  0
 23 24  1  0  0  0  0
 24 25  1  0  0  0  0
 24 26  1  0  0  0  0
 26 27  2  0  0  0  0
 26 28  1  0  0  0  0
 29 30  2  0  0  0  0
 32 33  2  0  0  0  0
 32 34  1  0  0  0  0
 35 34  2  0  0  0  0
 34 40  1  0  0  0  0
 35 36  1  0  0  0  0
 37 35  1  0  0  0  0
 38 37  2  0  0  0  0
 39 38  1  0  0  0  0
 40 39  2  0  0  0  0
 40 41  1  0  0  0  0
 41 42  1  0  0  0  0
 41 43  1  0  0  0  0
M  END
> <Inchi_key>
AUYOFEBFEDTXBJ-UHFFFAOYSA-N

> <Source>
Mulliner

> <ID>
HT1260

> <H_MFHB>
0

> <CAS>


> <Cholestasis>


> <Name>
lymecycline

> <Class>
0


$$$$