
  -INDIGO-08031710012D

 19 21  0  0  0  0  0  0  0  0999 V2000
    2.2500    1.7093    0.0000 C   0  0  0  0  0  0  0  0  0  0  0  0
    3.0000    0.4102    0.0000 C   0  0  0  0  0  0  0  0  0  0  0  0
    4.4999    0.4102    0.0000 N   0  0  0  0  0  0  0  0  0  0  0  0
    5.2501   -0.8888    0.0000 C   0  0  0  0  0  0  0  0  0  0  0  0
    6.7500   -0.8888    0.0000 C   0  0  0  0  0  0  0  0  0  0  0  0
    7.5000   -2.1879    0.0000 C   0  0  0  0  0  0  0  0  0  0  0  0
    6.7500   -3.4869    0.0000 C   0  0  0  0  0  0  0  0  0  0  0  0
    5.2501   -3.4869    0.0000 C   0  0  0  0  0  0  0  0  0  0  0  0
    4.4999   -2.1879    0.0000 C   0  0  0  0  0  0  0  0  0  0  0  0
    3.0000   -2.1879    0.0000 C   0  0  0  0  0  0  0  0  0  0  0  0
    2.2500   -3.4869    0.0000 O   0  0  0  0  0  0  0  0  0  0  0  0
    2.2500   -0.8888    0.0000 N   0  0  0  0  0  0  0  0  0  0  0  0
    0.7501   -0.8888    0.0000 C   0  0  0  0  0  0  0  0  0  0  0  0
   -0.0001   -2.1879    0.0000 C   0  0  0  0  0  0  0  0  0  0  0  0
   -1.5000   -2.1879    0.0000 C   0  0  0  0  0  0  0  0  0  0  0  0
   -2.2500   -0.8888    0.0000 C   0  0  0  0  0  0  0  0  0  0  0  0
   -1.5000    0.4102    0.0000 C   0  0  0  0  0  0  0  0  0  0  0  0
   -0.0001    0.4102    0.0000 C   0  0  0  0  0  0  0  0  0  0  0  0
    0.7501    1.7093    0.0000 C   0  0  0  0  0  0  0  0  0  0  0  0
  1  2  1  0  0  0  0
  3  2  2  0  0  0  0
  2 12  1  0  0  0  0
  4  3  1  0  0  0  0
  5  4  2  0  0  0  0
  4  9  1  0  0  0  0
  6  5  1  0  0  0  0
  7  6  2  0  0  0  0
  8  7  1  0  0  0  0
  9  8  2  0  0  0  0
 10  9  1  0  0  0  0
 10 11  2  0  0  0  0
 12 10  1  0  0  0  0
 12 13  1  0  0  0  0
 14 13  2  0  0  0  0
 13 18  1  0  0  0  0
 15 14  1  0  0  0  0
 16 15  2  0  0  0  0
 17 16  1  0  0  0  0
 18 17  2  0  0  0  0
 18 19  1  0  0  0  0
M  END
> <Inchi_key>
JEYCTXHKTXCGPB-UHFFFAOYSA-N

> <Source>
Mulliner , Kotsampasakou

> <ID>
EK0328;HT0634

> <H_MFHB>
0

> <CAS>


> <Cholestasis>
0

> <Name>
diamthazole dihydrochloride;methaqualone

> <Class>
0

$$$$