

  -INDIGO-08031710012D

 22 21  0  0  0  0  0  0  0  0999 V2000
   23.8636    0.0000    0.0000 C   0  0  0  0  0  0  0  0  0  0  0  0
   22.3636    0.0000    0.0000 C   0  0  0  0  0  0  0  0  0  0  0  0
   21.6138    1.2990    0.0000 C   0  0  0  0  0  0  0  0  0  0  0  0
   20.1138    1.2990    0.0000 C   0  0  0  0  0  0  0  0  0  0  0  0
   19.3636    0.0000    0.0000 C   0  0  0  0  0  0  0  0  0  0  0  0
   17.8636    0.0000    0.0000 C   0  0  0  0  0  0  0  0  0  0  0  0
   17.1138   -1.2990    0.0000 C   0  0  0  0  0  0  0  0  0  0  0  0
   15.6138   -1.2990    0.0000 C   0  0  0  0  0  0  0  0  0  0  0  0
   14.8636   -2.5981    0.0000 C   0  0  0  0  0  0  0  0  0  0  0  0
   13.3636   -2.5981    0.0000 C   0  0  0  0  0  0  0  0  0  0  0  0
   12.6138   -1.2990    0.0000 C   0  0  0  0  0  0  0  0  0  0  0  0
   11.1138   -1.2990    0.0000 C   0  0  0  0  0  0  0  0  0  0  0  0
   10.3636   -2.5981    0.0000 C   0  0  0  0  0  0  0  0  0  0  0  0
    8.8636   -2.5981    0.0000 C   0  0  0  0  0  0  0  0  0  0  0  0
    8.1138   -3.8971    0.0000 C   0  0  0  0  0  0  0  0  0  0  0  0
    6.6138   -3.8971    0.0000 C   0  0  0  0  0  0  0  0  0  0  0  0
    5.8636   -2.5981    0.0000 C   0  0  0  0  0  0  0  0  0  0  0  0
    4.3636   -2.5981    0.0000 C   0  0  0  0  0  0  0  0  0  0  0  0
    3.6138   -1.2990    0.0000 C   0  0  0  0  0  0  0  0  0  0  0  0
    2.1138   -1.2990    0.0000 C   0  0  0  0  0  0  0  0  0  0  0  0
    1.3636    0.0000    0.0000 O   0  0  0  0  0  0  0  0  0  0  0  0
    1.3636   -2.5981    0.0000 O   0  0  0  0  0  0  0  0  0  0  0  0
  1  2  1  0  0  0  0
  2  3  1  0  0  0  0
  3  4  2  0  0  0  0
  4  5  1  0  0  0  0
  5  6  1  0  0  0  0
  6  7  2  0  0  0  0
  7  8  1  0  0  0  0
  8  9  1  0  0  0  0
  9 10  2  0  0  0  0
 10 11  1  0  0  0  0
 11 12  1  0  0  0  0
 12 13  2  0  0  0  0
 13 14  1  0  0  0  0
 14 15  1  0  0  0  0
 15 16  2  0  0  0  0
 16 17  1  0  0  0  0
 17 18  1  0  0  0  0
 18 19  1  0  0  0  0
 19 20  1  0  0  0  0
 20 21  2  0  0  0  0
 20 22  1  0  0  0  0
M  END
> <Inchi_key>
JAZBEHYOTPTENJ-XCTQYGNCSA-N

> <Source>
Mulliner

> <ID>
HT1073

> <H_MFHB>
0

> <CAS>


> <Cholestasis>


> <Name>
icosapent;eicosapentaenoic acid

> <Class>
0


$$$$