

  -INDIGO-08031710012D

 15 16  0  0  0  0  0  0  0  0999 V2000
    9.1622   -0.3464    0.0000 Cl  0  0  0  0  0  0  0  0  0  0  0  0
    7.6622   -0.3464    0.0000 C   0  0  0  0  0  0  0  0  0  0  0  0
    6.9122   -1.6454    0.0000 C   0  0  0  0  0  0  0  0  0  0  0  0
    5.4121   -1.6454    0.0000 C   0  0  0  0  0  0  0  0  0  0  0  0
    4.6621   -0.3464    0.0000 C   0  0  0  0  0  0  0  0  0  0  0  0
    5.4121    0.9526    0.0000 C   0  0  0  0  0  0  0  0  0  0  0  0
    6.9122    0.9526    0.0000 C   0  0  0  0  0  0  0  0  0  0  0  0
    7.6622    2.2517    0.0000 Cl  0  0  0  0  0  0  0  0  0  0  0  0
    3.1622   -0.3464    0.0000 N   0  0  0  0  0  0  0  0  0  0  0  0
    2.2805   -1.5599    0.0000 C   0  0  0  0  0  0  0  0  0  0  0  0
    2.7440   -2.9865    0.0000 O   0  0  0  0  0  0  0  0  0  0  0  0
    0.8539   -1.0964    0.0000 C   0  0  0  0  0  0  0  0  0  0  0  0
    0.8539    0.4036    0.0000 C   0  0  0  0  0  0  0  0  0  0  0  0
    2.2805    0.8671    0.0000 C   0  0  0  0  0  0  0  0  0  0  0  0
    2.7440    2.2937    0.0000 O   0  0  0  0  0  0  0  0  0  0  0  0
  1  2  1  0  0  0  0
  3  2  2  0  0  0  0
  2  7  1  0  0  0  0
  4  3  1  0  0  0  0
  5  4  2  0  0  0  0
  6  5  1  0  0  0  0
  5  9  1  0  0  0  0
  7  6  2  0  0  0  0
  7  8  1  0  0  0  0
 10  9  1  0  0  0  0
  9 14  1  0  0  0  0
 10 11  2  0  0  0  0
 12 10  1  0  0  0  0
 13 12  1  0  0  0  0
 14 13  1  0  0  0  0
 14 15  2  0  0  0  0
M  END
> <Inchi_key>
JPQAYGXNGGHZAG-UHFFFAOYSA-N

> <Source>
Mulliner

> <ID>
HT0034

> <H_MFHB>
0

> <CAS>


> <Cholestasis>


> <Name>
3,4-dichlorophenyl succinimide

> <Class>
0


$$$$