
  -INDIGO-08031710012D

 35 39  0  0  0  0  0  0  0  0999 V2000
    7.4429    7.4429    0.0000 C   0  0  0  0  0  0  0  0  0  0  0  0
    7.4429    5.9429    0.0000 C   0  0  0  0  0  0  0  0  0  0  0  0
    6.1439    5.1929    0.0000 C   0  0  0  0  0  0  0  0  0  0  0  0
    4.8449    5.9429    0.0000 C   0  0  0  0  0  0  0  0  0  0  0  0
    3.5457    5.1929    0.0000 N   0  0  0  0  0  0  0  0  0  0  0  0
    2.2467    5.9429    0.0000 C   0  0  0  0  0  0  0  0  0  0  0  0
    0.9478    5.1929    0.0000 C   0  0  0  0  0  0  0  0  0  0  0  0
    0.9478    3.6930    0.0000 C   0  0  0  0  0  0  0  0  0  0  0  0
   -0.3512    2.9430    0.0000 C   0  0  0  0  0  0  0  0  0  0  0  0
   -0.3512    1.4428    0.0000 C   0  0  0  0  0  0  0  0  0  0  0  0
   -1.6504    0.6928    0.0000 O   0  0  0  0  0  0  0  0  0  0  0  0
   -2.9494    1.4428    0.0000 C   0  0  0  0  0  0  0  0  0  0  0  0
    0.9478    0.6928    0.0000 C   0  0  0  0  0  0  0  0  0  0  0  0
    0.9478   -0.8071    0.0000 O   0  0  0  0  0  0  0  0  0  0  0  0
   -0.3512   -1.5571    0.0000 C   0  0  0  0  0  0  0  0  0  0  0  0
    2.2467    1.4428    0.0000 C   0  0  0  0  0  0  0  0  0  0  0  0
    2.2467    2.9430    0.0000 C   0  0  0  0  0  0  0  0  0  0  0  0
    3.5457    3.6930    0.0000 C   0  0  0  0  0  0  0  0  0  0  0  0
    4.8449    2.9430    0.0000 C   0  0  0  0  0  0  0  0  0  0  0  0
    6.1439    3.6930    0.0000 C   0  0  0  0  0  0  0  0  0  0  0  0
    7.4429    2.9430    0.0000 C   0  0  0  0  0  0  0  0  0  0  0  0
    7.4429    1.4428    0.0000 C   0  0  0  0  0  0  0  0  0  0  0  0
    6.1439    0.6928    0.0000 N   0  0  0  0  0  0  0  0  0  0  0  0
    6.1439   -0.8071    0.0000 C   0  0  0  0  0  0  0  0  0  0  0  0
    7.4429   -1.5571    0.0000 C   0  0  0  0  0  0  0  0  0  0  0  0
    8.7418   -0.8071    0.0000 C   0  0  0  0  0  0  0  0  0  0  0  0
   10.0411   -1.5571    0.0000 C   0  0  0  0  0  0  0  0  0  0  0  0
   11.3400   -0.8071    0.0000 C   0  0  0  0  0  0  0  0  0  0  0  0
   12.6390   -1.5571    0.0000 O   0  0  0  0  0  0  0  0  0  0  0  0
   12.6390   -3.0571    0.0000 C   0  0  0  0  0  0  0  0  0  0  0  0
   11.3400    0.6928    0.0000 C   0  0  0  0  0  0  0  0  0  0  0  0
   12.6390    1.4428    0.0000 O   0  0  0  0  0  0  0  0  0  0  0  0
   12.6390    2.9430    0.0000 C   0  0  0  0  0  0  0  0  0  0  0  0
   10.0411    1.4428    0.0000 C   0  0  0  0  0  0  0  0  0  0  0  0
    8.7418    0.6928    0.0000 C   0  0  0  0  0  0  0  0  0  0  0  0
  1  2  1  0  0  0  0
  2  3  1  0  0  0  0
  4  3  1  0  0  0  0
  3 20  1  0  0  0  0
  5  4  1  0  0  0  0
  6  5  1  0  0  0  0
  5 18  1  0  0  0  0
  7  6  1  0  0  0  0
  8  7  1  0  0  0  0
  9  8  2  0  0  0  0
  8 17  1  0  0  0  0
 10  9  1  0  0  0  0
 10 11  1  0  0  0  0
 13 10  2  0  0  0  0
 11 12  1  0  0  0  0
 13 14  1  0  0  0  0
 16 13  1  0  0  0  0
 14 15  1  0  0  0  0
 17 16  2  0  0  0  0
 18 17  1  0  0  0  0
 19 18  1  0  0  0  0
 20 19  1  0  0  0  0
 20 21  1  0  0  0  0
 21 22  1  0  0  0  0
 23 22  1  0  0  0  0
 22 35  1  0  0  0  0
 24 23  1  0  0  0  0
 25 24  1  0  0  0  0
 26 25  1  0  0  0  0
 27 26  2  0  0  0  0
 26 35  1  0  0  0  0
 28 27  1  0  0  0  0
 28 29  1  0  0  0  0
 31 28  2  0  0  0  0
 29 30  1  0  0  0  0
 31 32  1  0  0  0  0
 34 31  1  0  0  0  0
 32 33  1  0  0  0  0
 35 34  2  0  0  0  0
M  END
> <Inchi_key>
AUVVAXYIELKVAI-UHFFFAOYSA-N

> <Source>
Mulliner

> <ID>
HT2284

> <H_MFHB>
0

> <CAS>


> <Cholestasis>


> <Name>


> <Class>
0

$$$$