
  -INDIGO-08031710012D

 23 24  0  0  0  0  0  0  0  0999 V2000
    5.8834   -4.0572    0.0000 N   0  0  0  0  0  0  0  0  0  0  0  0
    5.8834   -5.5572    0.0000 C   0  0  0  0  0  0  0  0  0  0  0  0
    4.5843   -6.3072    0.0000 C   0  0  0  0  0  0  0  0  0  0  0  0
    3.2852   -5.5572    0.0000 C   0  0  0  0  0  0  0  0  0  0  0  0
    1.9861   -6.3072    0.0000 C   0  0  0  0  0  0  0  0  0  0  0  0
    0.6872   -5.5572    0.0000 C   0  0  0  0  0  0  0  0  0  0  0  0
   -0.6119   -6.3072    0.0000 I   0  0  0  0  0  0  0  0  0  0  0  0
    0.6872   -4.0572    0.0000 C   0  0  0  0  0  0  0  0  0  0  0  0
   -0.6119   -3.3072    0.0000 O   0  0  0  0  0  0  0  0  0  0  0  0
   -1.9110   -4.0572    0.0000 C   0  0  0  0  0  0  0  0  0  0  0  0
   -1.9110   -5.5572    0.0000 C   0  0  0  0  0  0  0  0  0  0  0  0
   -3.2101   -6.3072    0.0000 C   0  0  0  0  0  0  0  0  0  0  0  0
   -4.5090   -5.5572    0.0000 C   0  0  0  0  0  0  0  0  0  0  0  0
   -5.8081   -6.3072    0.0000 O   0  0  0  0  0  0  0  0  0  0  0  0
   -4.5090   -4.0572    0.0000 C   0  0  0  0  0  0  0  0  0  0  0  0
   -5.8081   -3.3072    0.0000 I   0  0  0  0  0  0  0  0  0  0  0  0
   -3.2101   -3.3072    0.0000 C   0  0  0  0  0  0  0  0  0  0  0  0
    1.9861   -3.3072    0.0000 C   0  0  0  0  0  0  0  0  0  0  0  0
    1.9861   -1.8072    0.0000 I   0  0  0  0  0  0  0  0  0  0  0  0
    3.2852   -4.0572    0.0000 C   0  0  0  0  0  0  0  0  0  0  0  0
    7.1823   -6.3072    0.0000 C   0  0  0  0  0  0  0  0  0  0  0  0
    8.4814   -5.5572    0.0000 O   0  0  0  0  0  0  0  0  0  0  0  0
    7.1823   -7.8072    0.0000 O   0  0  0  0  0  0  0  0  0  0  0  0
  1  2  1  0  0  0  0
  2  3  1  0  0  0  0
  2 21  1  0  0  0  0
  3  4  1  0  0  0  0
  5  4  2  0  0  0  0
  4 20  1  0  0  0  0
  6  5  1  0  0  0  0
  6  7  1  0  0  0  0
  8  6  2  0  0  0  0
  8  9  1  0  0  0  0
 18  8  1  0  0  0  0
  9 10  1  0  0  0  0
 11 10  2  0  0  0  0
 10 17  1  0  0  0  0
 12 11  1  0  0  0  0
 13 12  2  0  0  0  0
 13 14  1  0  0  0  0
 15 13  1  0  0  0  0
 15 16  1  0  0  0  0
 17 15  2  0  0  0  0
 18 19  1  0  0  0  0
 20 18  2  0  0  0  0
 21 22  2  0  0  0  0
 21 23  1  0  0  0  0
M  END
> <Inchi_key>
AUYYCJSJGJYCDS-UHFFFAOYSA-N

> <Source>
Mulliner , Kotsampasakou

> <ID>
EK0551;HT1215

> <H_MFHB>
0

> <CAS>
1823692

> <Cholestasis>
0

> <Name>
liothyronine sodium;liothyronine;triiodothyronine

> <Class>
0

$$$$