

  -INDIGO-08031710012D

 45 51  0  0  0  0  0  0  0  0999 V2000
   17.2554   -5.2391    0.0000 C   0  0  0  0  0  0  0  0  0  0  0  0
   16.0257   -6.0981    0.0000 O   0  0  0  0  0  0  0  0  0  0  0  0
   14.6670   -5.4626    0.0000 C   0  0  0  0  0  0  0  0  0  0  0  0
   14.5410   -3.9708    0.0000 C   0  0  0  0  0  0  0  0  0  0  0  0
   13.1890   -3.3441    0.0000 C   0  0  0  0  0  0  0  0  0  0  0  0
   13.1544   -1.8517    0.0000 C   0  0  0  0  0  0  0  0  0  0  0  0
   11.8401   -1.1361    0.0000 C   0  0  0  0  0  0  0  0  0  0  0  0
   10.5586   -1.9194    0.0000 N   0  0  0  0  0  0  0  0  0  0  0  0
    9.7781   -0.6385    0.0000 C   0  0  0  0  0  0  0  0  0  0  0  0
    9.0589   -1.9536    0.0000 C   0  0  0  0  0  0  0  0  0  0  0  0
   10.5903   -3.3939    0.0000 C   0  0  0  0  0  0  0  0  0  0  0  0
    9.6267   -2.2468    0.0000 C   0  0  0  0  0  0  0  0  0  0  0  0
    7.9956   -2.0964    0.0000 C   0  0  0  0  0  0  0  0  0  0  0  0
    7.6217   -0.6540    0.0000 C   0  0  0  0  0  0  0  0  0  0  0  0
    6.2018   -0.1991    0.0000 C   0  0  0  0  0  0  0  0  0  0  0  0
    5.1045   -1.2081    0.0000 C   0  0  0  0  0  0  0  0  0  0  0  0
    3.6829   -0.7291    0.0000 O   0  0  0  0  0  0  0  0  0  0  0  0
    5.3687   -2.6723    0.0000 C   0  0  0  0  0  0  0  0  0  0  0  0
    3.9651   -3.4838    0.0000 O   0  0  0  0  0  0  0  0  0  0  0  0
    3.6948   -5.0536    0.0000 C   0  0  0  0  0  0  0  0  0  0  0  0
    4.4468   -6.3721    0.0000 C   0  0  0  0  0  0  0  0  0  0  0  0
    3.6959   -7.7626    0.0000 C   0  0  0  0  0  0  0  0  0  0  0  0
    4.3200   -9.1963    0.0000 C   0  0  0  0  0  0  0  0  0  0  0  0
    5.6847   -9.9487    0.0000 C   0  0  0  0  0  0  0  0  0  0  0  0
    7.2405   -9.2387    0.0000 C   0  0  0  0  0  0  0  0  0  0  0  0
    7.3330   -7.7129    0.0000 C   0  0  0  0  0  0  0  0  0  0  0  0
    8.6639   -7.0132    0.0000 C   0  0  0  0  0  0  0  0  0  0  0  0
    9.9712   -7.7945    0.0000 C   0  0  0  0  0  0  0  0  0  0  0  0
   11.5082   -7.0800    0.0000 O   0  0  0  0  0  0  0  0  0  0  0  0
   12.1022   -5.7186    0.0000 C   0  0  0  0  0  0  0  0  0  0  0  0
   13.4384   -6.3238    0.0000 C   0  0  0  0  0  0  0  0  0  0  0  0
   13.5776   -7.8173    0.0000 O   0  0  0  0  0  0  0  0  0  0  0  0
   11.9321   -4.1612    0.0000 C   0  0  0  0  0  0  0  0  0  0  0  0
    9.8729   -9.3249    0.0000 C   0  0  0  0  0  0  0  0  0  0  0  0
    8.5410  -10.0223    0.0000 C   0  0  0  0  0  0  0  0  0  0  0  0
    3.4507  -10.3855    0.0000 N   0  0  0  0  0  0  0  0  0  0  0  0
    4.0629  -11.7549    0.0000 C   0  0  0  0  0  0  0  0  0  0  0  0
    1.9594  -10.2374    0.0000 C   0  0  0  0  0  0  0  0  0  0  0  0
    1.3337   -8.8760    0.0000 C   0  0  0  0  0  0  0  0  0  0  0  0
    2.2091   -7.6699    0.0000 C   0  0  0  0  0  0  0  0  0  0  0  0
    1.4582   -6.3915    0.0000 C   0  0  0  0  0  0  0  0  0  0  0  0
    2.2091   -5.1064    0.0000 C   0  0  0  0  0  0  0  0  0  0  0  0
    1.4391   -3.8190    0.0000 O   0  0  0  0  0  0  0  0  0  0  0  0
   -0.0606   -3.8421    0.0000 C   0  0  0  0  0  0  0  0  0  0  0  0
    6.8465   -3.1175    0.0000 C   0  0  0  0  0  0  0  0  0  0  0  0
  1  2  1  0  0  0  0
  2  3  1  0  0  0  0
  4  3  2  0  0  0  0
  3 31  1  0  0  0  0
  5  4  1  0  0  0  0
  6  5  1  0  0  0  0
  5 33  2  0  0  0  0
  7  6  1  0  0  0  0
  8  7  1  0  0  0  0
  8  9  1  0  0  0  0
  8 10  1  0  0  0  0
 11  8  1  0  0  0  0
 11 12  1  0  0  0  0
 33 11  1  0  0  0  0
 12 13  1  0  0  0  0
 14 13  2  0  0  0  0
 13 45  1  0  0  0  0
 15 14  1  0  0  0  0
 16 15  2  0  0  0  0
 16 17  1  0  0  0  0
 18 16  1  0  0  0  0
 18 19  1  0  0  0  0
 45 18  2  0  0  0  0
 19 20  1  0  0  0  0
 21 20  2  0  0  0  0
 20 42  1  0  0  0  0
 22 21  1  0  0  0  0
 23 22  1  0  0  0  0
 22 40  2  0  0  0  0
 23 24  1  0  0  0  0
 36 23  1  0  0  0  0
 24 25  1  0  0  0  0
 26 25  2  0  0  0  0
 25 35  1  0  0  0  0
 27 26  1  0  0  0  0
 28 27  2  0  0  0  0
 28 29  1  0  0  0  0
 34 28  1  0  0  0  0
 29 30  1  0  0  0  0
 31 30  2  0  0  0  0
 30 33  1  0  0  0  0
 31 32  1  0  0  0  0
 35 34  2  0  0  0  0
 36 37  1  0  0  0  0
 38 36  1  0  0  0  0
 39 38  1  0  0  0  0
 40 39  1  0  0  0  0
 41 40  1  0  0  0  0
 42 41  2  0  0  0  0
 42 43  1  0  0  0  0
 43 44  1  0  0  0  0
M  CHG  1   8   1
M  END
> <Inchi_key>
JFJZZMVDLULRGK-UHFFFAOYSA-O

> <Source>
Mulliner

> <ID>
HT2145

> <H_MFHB>
0

> <CAS>


> <Cholestasis>


> <Name>
tubocurarine

> <Class>
0


$$$$