
  -INDIGO-08031709442D

 91 95  0  0  0  0  0  0  0  0999 V2000
   -3.4160   -1.0698    0.0000 S   0  0  0  0  0  0  0  0  0  0  0  0
   -2.6659   -2.3688    0.0000 O   0  0  0  0  0  0  0  0  0  0  0  0
   -4.1661    0.2292    0.0000 O   0  0  0  0  0  0  0  0  0  0  0  0
   -4.7150   -1.8198    0.0000 O   0  0  0  0  0  0  0  0  0  0  0  0
   -2.1170   -0.3199    0.0000 N   0  0  0  0  0  0  0  0  0  0  0  0
   -2.1170    1.1803    0.0000 C   0  0  0  0  0  0  0  0  0  0  0  0
   -0.8180    1.9302    0.0000 C   0  0  0  0  0  0  0  0  0  0  0  0
    0.4811    1.1803    0.0000 O   0  0  0  0  0  0  0  0  0  0  0  0
    0.4811   -0.3199    0.0000 S   0  0  0  0  0  0  0  0  0  0  0  0
    1.9813   -0.3199    0.0000 O   0  0  0  0  0  0  0  0  0  0  0  0
   -1.0187   -0.3199    0.0000 O   0  0  0  0  0  0  0  0  0  0  0  0
    0.4811   -1.8198    0.0000 O   0  0  0  0  0  0  0  0  0  0  0  0
   -0.8180    3.4301    0.0000 C   0  0  0  0  0  0  0  0  0  0  0  0
    0.1465    4.5793    0.0000 O   0  0  0  0  0  0  0  0  0  0  0  0
    1.6235    4.3188    0.0000 C   0  0  0  0  0  0  0  0  0  0  0  0
    2.3736    5.6178    0.0000 O   0  0  0  0  0  0  0  0  0  0  0  0
    3.8738    5.6178    0.0000 C   0  0  0  0  0  0  0  0  0  0  0  0
    4.6235    6.9170    0.0000 C   0  0  0  0  0  0  0  0  0  0  0  0
    6.1237    6.9170    0.0000 O   0  0  0  0  0  0  0  0  0  0  0  0
    3.8738    8.2160    0.0000 O   0  0  0  0  0  0  0  0  0  0  0  0
    4.6235    4.3188    0.0000 C   0  0  0  0  0  0  0  0  0  0  0  0
    6.1237    4.3188    0.0000 O   0  0  0  0  0  0  0  0  0  0  0  0
    6.8738    3.0196    0.0000 C   0  0  0  0  0  0  0  0  0  0  0  0
    6.1237    1.7206    0.0000 O   0  0  0  0  0  0  0  0  0  0  0  0
    6.8738    0.4216    0.0000 C   0  0  0  0  0  0  0  0  0  0  0  0
    6.1237   -0.8773    0.0000 C   0  0  0  0  0  0  0  0  0  0  0  0
    6.8738   -2.1763    0.0000 O   0  0  0  0  0  0  0  0  0  0  0  0
    6.1237   -3.4753    0.0000 S   0  0  0  0  0  0  0  0  0  0  0  0
    7.4227   -4.2255    0.0000 O   0  0  0  0  0  0  0  0  0  0  0  0
    4.8247   -2.7253    0.0000 O   0  0  0  0  0  0  0  0  0  0  0  0
    5.3736   -4.7745    0.0000 O   0  0  0  0  0  0  0  0  0  0  0  0
    8.3735    0.4216    0.0000 C   0  0  0  0  0  0  0  0  0  0  0  0
    9.1236   -0.8773    0.0000 O   0  0  0  0  0  0  0  0  0  0  0  0
    9.1236    1.7206    0.0000 C   0  0  0  0  0  0  0  0  0  0  0  0
   10.6234    1.7206    0.0000 O   0  0  0  0  0  0  0  0  0  0  0  0
    8.3735    3.0196    0.0000 C   0  0  0  0  0  0  0  0  0  0  0  0
    9.1236    4.3188    0.0000 N   0  0  0  0  0  0  0  0  0  0  0  0
   10.6234    4.3188    0.0000 S   0  0  0  0  0  0  0  0  0  0  0  0
   10.6234    2.8189    0.0000 O   0  0  0  0  0  0  0  0  0  0  0  0
   10.6234    5.8187    0.0000 O   0  0  0  0  0  0  0  0  0  0  0  0
   12.1236    4.3188    0.0000 O   0  0  0  0  0  0  0  0  0  0  0  0
    3.8738    3.0196    0.0000 C   0  0  0  0  0  0  0  0  0  0  0  0
    4.6235    1.7206    0.0000 O   0  0  0  0  0  0  0  0  0  0  0  0
    2.3736    3.0196    0.0000 C   0  0  0  0  0  0  0  0  0  0  0  0
    1.2243    2.0555    0.0000 O   0  0  0  0  0  0  0  0  0  0  0  0
   -2.1170    4.1803    0.0000 C   0  0  0  0  0  0  0  0  0  0  0  0
   -3.4160    3.4301    0.0000 O   0  0  0  0  0  0  0  0  0  0  0  0
   -3.4160    1.9302    0.0000 C   0  0  0  0  0  0  0  0  0  0  0  0
   -4.7150    1.1803    0.0000 O   0  0  0  0  0  0  0  0  0  0  0  0
   -6.0141    1.9302    0.0000 C   0  0  0  0  0  0  0  0  0  0  0  0
   -6.0141    3.4301    0.0000 C   0  0  0  0  0  0  0  0  0  0  0  0
   -4.7150    4.1803    0.0000 O   0  0  0  0  0  0  0  0  0  0  0  0
   -7.3131    4.1803    0.0000 C   0  0  0  0  0  0  0  0  0  0  0  0
   -7.3131    5.6802    0.0000 O   0  0  0  0  0  0  0  0  0  0  0  0
   -8.6121    6.4302    0.0000 S   0  0  0  0  0  0  0  0  0  0  0  0
   -9.3622    5.1312    0.0000 O   0  0  0  0  0  0  0  0  0  0  0  0
   -7.8620    7.7291    0.0000 O   0  0  0  0  0  0  0  0  0  0  0  0
   -9.9111    7.1801    0.0000 O   0  0  0  0  0  0  0  0  0  0  0  0
   -8.6121    3.4301    0.0000 C   0  0  0  0  0  0  0  0  0  0  0  0
   -8.6121    1.9302    0.0000 O   0  0  0  0  0  0  0  0  0  0  0  0
   -7.3131    1.1803    0.0000 C   0  0  0  0  0  0  0  0  0  0  0  0
   -7.3131   -0.3199    0.0000 C   0  0  0  0  0  0  0  0  0  0  0  0
   -8.6121   -1.0698    0.0000 O   0  0  0  0  0  0  0  0  0  0  0  0
   -6.0141   -1.0698    0.0000 O   0  0  0  0  0  0  0  0  0  0  0  0
   -9.9111    4.1803    0.0000 O   0  0  0  0  0  0  0  0  0  0  0  0
  -11.2102    3.4301    0.0000 C   0  0  0  0  0  0  0  0  0  0  0  0
  -12.5092    4.1803    0.0000 C   0  0  0  0  0  0  0  0  0  0  0  0
  -12.5092    5.6802    0.0000 O   0  0  0  0  0  0  0  0  0  0  0  0
  -13.8082    3.4301    0.0000 C   0  0  0  0  0  0  0  0  0  0  0  0
  -15.1072    4.1803    0.0000 N   0  0  0  0  0  0  0  0  0  0  0  0
  -16.4063    3.4301    0.0000 S   0  0  0  0  0  0  0  0  0  0  0  0
  -17.1564    4.7291    0.0000 O   0  0  0  0  0  0  0  0  0  0  0  0
  -15.6562    2.1311    0.0000 O   0  0  0  0  0  0  0  0  0  0  0  0
  -17.7053    2.6802    0.0000 O   0  0  0  0  0  0  0  0  0  0  0  0
  -13.8082    1.9302    0.0000 C   0  0  0  0  0  0  0  0  0  0  0  0
  -12.5092    1.1803    0.0000 O   0  0  0  0  0  0  0  0  0  0  0  0
  -11.2102    1.9302    0.0000 C   0  0  0  0  0  0  0  0  0  0  0  0
   -9.9111    1.1803    0.0000 C   0  0  0  0  0  0  0  0  0  0  0  0
   -9.9111   -0.3199    0.0000 O   0  0  0  0  0  0  0  0  0  0  0  0
  -11.2102   -1.0698    0.0000 S   0  0  0  0  0  0  0  0  0  0  0  0
  -11.9603    0.2292    0.0000 O   0  0  0  0  0  0  0  0  0  0  0  0
  -10.4601   -2.3688    0.0000 O   0  0  0  0  0  0  0  0  0  0  0  0
  -12.5092   -1.8198    0.0000 O   0  0  0  0  0  0  0  0  0  0  0  0
  -15.1072    1.1803    0.0000 O   0  0  0  0  0  0  0  0  0  0  0  0
  -15.1072   -0.3199    0.0000 C   0  0  0  0  0  0  0  0  0  0  0  0
   -2.1170    5.6802    0.0000 C   0  0  0  0  0  0  0  0  0  0  0  0
   -3.4160    6.4302    0.0000 O   0  0  0  0  0  0  0  0  0  0  0  0
   -3.4160    7.9303    0.0000 S   0  0  0  0  0  0  0  0  0  0  0  0
   -4.9158    7.9303    0.0000 O   0  0  0  0  0  0  0  0  0  0  0  0
   -1.9158    7.9303    0.0000 O   0  0  0  0  0  0  0  0  0  0  0  0
   -3.4160    9.4302    0.0000 O   0  0  0  0  0  0  0  0  0  0  0  0
  1  2  2  0  0  0  0
  1  3  2  0  0  0  0
  1  4  1  0  0  0  0
  1  5  1  0  0  0  0
  5  6  1  0  0  0  0
  7  6  1  0  0  0  0
  6 48  1  0  0  0  0
  7  8  1  0  0  0  0
 13  7  1  0  0  0  0
  8  9  1  0  0  0  0
  9 10  2  0  0  0  0
  9 11  2  0  0  0  0
  9 12  1  0  0  0  0
 13 14  1  0  0  0  0
 46 13  1  0  0  0  0
 14 15  1  0  0  0  0
 16 15  1  0  0  0  0
 15 44  1  0  0  0  0
 17 16  1  0  0  0  0
 17 18  1  0  0  0  0
 21 17  1  0  0  0  0
 18 19  1  0  0  0  0
 18 20  2  0  0  0  0
 21 22  1  0  0  0  0
 42 21  1  0  0  0  0
 22 23  1  0  0  0  0
 24 23  1  0  0  0  0
 23 36  1  0  0  0  0
 25 24  1  0  0  0  0
 25 26  1  0  0  0  0
 32 25  1  0  0  0  0
 26 27  1  0  0  0  0
 27 28  1  0  0  0  0
 28 29  2  0  0  0  0
 28 30  2  0  0  0  0
 28 31  1  0  0  0  0
 32 33  1  0  0  0  0
 34 32  1  0  0  0  0
 34 35  1  0  0  0  0
 36 34  1  0  0  0  0
 36 37  1  0  0  0  0
 37 38  1  0  0  0  0
 38 39  2  0  0  0  0
 38 40  2  0  0  0  0
 38 41  1  0  0  0  0
 42 43  1  0  0  0  0
 44 42  1  0  0  0  0
 44 45  1  0  0  0  0
 47 46  1  0  0  0  0
 46 86  1  0  0  0  0
 48 47  1  0  0  0  0
 48 49  1  0  0  0  0
 49 50  1  0  0  0  0
 51 50  1  0  0  0  0
 50 61  1  0  0  0  0
 51 52  1  0  0  0  0
 53 51  1  0  0  0  0
 53 54  1  0  0  0  0
 59 53  1  0  0  0  0
 54 55  1  0  0  0  0
 55 56  2  0  0  0  0
 55 57  2  0  0  0  0
 55 58  1  0  0  0  0
 60 59  1  0  0  0  0
 59 65  1  0  0  0  0
 61 60  1  0  0  0  0
 61 62  1  0  0  0  0
 62 63  1  0  0  0  0
 62 64  2  0  0  0  0
 65 66  1  0  0  0  0
 67 66  1  0  0  0  0
 66 77  1  0  0  0  0
 67 68  1  0  0  0  0
 69 67  1  0  0  0  0
 69 70  1  0  0  0  0
 75 69  1  0  0  0  0
 70 71  1  0  0  0  0
 71 72  2  0  0  0  0
 71 73  2  0  0  0  0
 71 74  1  0  0  0  0
 76 75  1  0  0  0  0
 75 84  1  0  0  0  0
 77 76  1  0  0  0  0
 77 78  1  0  0  0  0
 78 79  1  0  0  0  0
 79 80  1  0  0  0  0
 80 81  2  0  0  0  0
 80 82  2  0  0  0  0
 80 83  1  0  0  0  0
 84 85  1  0  0  0  0
 86 87  1  0  0  0  0
 87 88  1  0  0  0  0
 88 89  2  0  0  0  0
 88 90  2  0  0  0  0
 88 91  1  0  0  0  0
M  END
> <Inchi_key>
KANJSNBRCNMZMV-UHFFFAOYSA-N

> <Source>
Kotsampasakou

> <ID>
EK0232

> <H_MFHB>


> <CAS>


> <Cholestasis>
0

> <Name>
fondaparinux

> <Class>
0

$$$$