
  -INDIGO-08031710012D

 29 30  0  0  0  0  0  0  0  0999 V2000
    1.1832    1.1832    0.0000 C   0  0  0  0  0  0  0  0  0  0  0  0
    1.1832   -0.3168    0.0000 N   0  0  0  0  0  0  0  0  0  0  0  0
    2.4823   -1.0668    0.0000 C   0  0  0  0  0  0  0  0  0  0  0  0
    3.7813   -0.3168    0.0000 C   0  0  0  0  0  0  0  0  0  0  0  0
    5.0804   -1.0668    0.0000 O   0  0  0  0  0  0  0  0  0  0  0  0
    6.3794   -0.3168    0.0000 C   0  0  0  0  0  0  0  0  0  0  0  0
    7.6784   -1.0668    0.0000 C   0  0  0  0  0  0  0  0  0  0  0  0
    8.9775   -0.3168    0.0000 C   0  0  0  0  0  0  0  0  0  0  0  0
    8.9775    1.1832    0.0000 C   0  0  0  0  0  0  0  0  0  0  0  0
   10.2765    1.9332    0.0000 N   0  0  0  0  0  0  0  0  0  0  0  0
   11.5756    1.1832    0.0000 S   0  0  0  0  0  0  0  0  0  0  0  0
   12.3257    2.4823    0.0000 O   0  0  0  0  0  0  0  0  0  0  0  0
   10.8255   -0.1158    0.0000 O   0  0  0  0  0  0  0  0  0  0  0  0
   12.8746    0.4332    0.0000 C   0  0  0  0  0  0  0  0  0  0  0  0
    7.6784    1.9332    0.0000 C   0  0  0  0  0  0  0  0  0  0  0  0
    6.3794    1.1832    0.0000 C   0  0  0  0  0  0  0  0  0  0  0  0
   -0.1158   -1.0668    0.0000 C   0  0  0  0  0  0  0  0  0  0  0  0
   -1.4149   -0.3168    0.0000 C   0  0  0  0  0  0  0  0  0  0  0  0
   -2.7139   -1.0668    0.0000 C   0  0  0  0  0  0  0  0  0  0  0  0
   -4.0129   -0.3168    0.0000 C   0  0  0  0  0  0  0  0  0  0  0  0
   -5.3120   -1.0668    0.0000 C   0  0  0  0  0  0  0  0  0  0  0  0
   -5.3120   -2.5668    0.0000 C   0  0  0  0  0  0  0  0  0  0  0  0
   -6.6110   -3.3168    0.0000 N   0  0  0  0  0  0  0  0  0  0  0  0
   -7.9101   -2.5668    0.0000 S   0  0  0  0  0  0  0  0  0  0  0  0
   -7.1600   -1.2677    0.0000 O   0  0  0  0  0  0  0  0  0  0  0  0
   -8.6602   -3.8658    0.0000 O   0  0  0  0  0  0  0  0  0  0  0  0
   -9.2091   -1.8168    0.0000 C   0  0  0  0  0  0  0  0  0  0  0  0
   -4.0129   -3.3168    0.0000 C   0  0  0  0  0  0  0  0  0  0  0  0
   -2.7139   -2.5668    0.0000 C   0  0  0  0  0  0  0  0  0  0  0  0
  1  2  1  0  0  0  0
  2  3  1  0  0  0  0
  2 17  1  0  0  0  0
  3  4  1  0  0  0  0
  4  5  1  0  0  0  0
  5  6  1  0  0  0  0
  7  6  2  0  0  0  0
  6 16  1  0  0  0  0
  8  7  1  0  0  0  0
  9  8  2  0  0  0  0
  9 10  1  0  0  0  0
 15  9  1  0  0  0  0
 10 11  1  0  0  0  0
 11 12  2  0  0  0  0
 11 13  2  0  0  0  0
 11 14  1  0  0  0  0
 16 15  2  0  0  0  0
 17 18  1  0  0  0  0
 18 19  1  0  0  0  0
 20 19  2  0  0  0  0
 19 29  1  0  0  0  0
 21 20  1  0  0  0  0
 22 21  2  0  0  0  0
 22 23  1  0  0  0  0
 28 22  1  0  0  0  0
 23 24  1  0  0  0  0
 24 25  2  0  0  0  0
 24 26  2  0  0  0  0
 24 27  1  0  0  0  0
 29 28  2  0  0  0  0
M  END
> <Inchi_key>
IXTMWRCNAAVVAI-UHFFFAOYSA-N

> <Source>
Mulliner , Kotsampasakou

> <ID>
EK0172;HT0705

> <H_MFHB>
0

> <CAS>


> <Cholestasis>
0

> <Name>
dofetilide

> <Class>
0

$$$$