
  -INDIGO-08031710012D

 48 54  0  0  0  0  0  0  0  0999 V2000
    2.3547    2.9029    0.0000 C   0  0  0  0  0  0  0  0  0  0  0  0
    2.6643    1.4353    0.0000 O   0  0  0  0  0  0  0  0  0  0  0  0
    4.0900    0.9692    0.0000 C   0  0  0  0  0  0  0  0  0  0  0  0
    5.1819    1.9876    0.0000 C   0  0  0  0  0  0  0  0  0  0  0  0
    6.6061    1.5438    0.0000 C   0  0  0  0  0  0  0  0  0  0  0  0
    6.9919    0.1058    0.0000 C   0  0  0  0  0  0  0  0  0  0  0  0
    8.6099   -0.0074    0.0000 C   0  0  0  0  0  0  0  0  0  0  0  0
    9.6884   -1.0201    0.0000 C   0  0  0  0  0  0  0  0  0  0  0  0
   11.0169   -1.8150    0.0000 C   0  0  0  0  0  0  0  0  0  0  0  0
   12.2847   -1.0165    0.0000 C   0  0  0  0  0  0  0  0  0  0  0  0
   12.2877    0.4692    0.0000 C   0  0  0  0  0  0  0  0  0  0  0  0
   10.9854    1.2092    0.0000 C   0  0  0  0  0  0  0  0  0  0  0  0
    9.6884    0.4573    0.0000 N   0  0  0  0  0  0  0  0  0  0  0  0
    8.9074    1.7378    0.0000 C   0  0  0  0  0  0  0  0  0  0  0  0
    8.1886    0.4356    0.0000 C   0  0  0  0  0  0  0  0  0  0  0  0
   13.6262   -1.6533    0.0000 C   0  0  0  0  0  0  0  0  0  0  0  0
   13.7401   -3.1466    0.0000 C   0  0  0  0  0  0  0  0  0  0  0  0
   15.0930   -3.7948    0.0000 O   0  0  0  0  0  0  0  0  0  0  0  0
   16.3305   -2.9472    0.0000 C   0  0  0  0  0  0  0  0  0  0  0  0
   12.5061   -3.9949    0.0000 C   0  0  0  0  0  0  0  0  0  0  0  0
   12.6303   -5.4896    0.0000 O   0  0  0  0  0  0  0  0  0  0  0  0
   13.9870   -6.1295    0.0000 C   0  0  0  0  0  0  0  0  0  0  0  0
   11.1723   -3.3729    0.0000 C   0  0  0  0  0  0  0  0  0  0  0  0
   10.6246   -4.7497    0.0000 O   0  0  0  0  0  0  0  0  0  0  0  0
    9.1021   -5.4889    0.0000 C   0  0  0  0  0  0  0  0  0  0  0  0
    8.9634   -7.0087    0.0000 C   0  0  0  0  0  0  0  0  0  0  0  0
    7.6124   -7.6705    0.0000 C   0  0  0  0  0  0  0  0  0  0  0  0
    6.3285   -6.8497    0.0000 C   0  0  0  0  0  0  0  0  0  0  0  0
    4.8046   -7.6062    0.0000 C   0  0  0  0  0  0  0  0  0  0  0  0
    3.3877   -6.9696    0.0000 C   0  0  0  0  0  0  0  0  0  0  0  0
    2.7136   -5.5563    0.0000 C   0  0  0  0  0  0  0  0  0  0  0  0
    3.4338   -4.1486    0.0000 C   0  0  0  0  0  0  0  0  0  0  0  0
    2.6443   -2.8452    0.0000 C   0  0  0  0  0  0  0  0  0  0  0  0
    2.9480   -1.2670    0.0000 O   0  0  0  0  0  0  0  0  0  0  0  0
    4.3689   -0.4924    0.0000 C   0  0  0  0  0  0  0  0  0  0  0  0
    5.8483   -0.9277    0.0000 C   0  0  0  0  0  0  0  0  0  0  0  0
    1.1586   -2.9361    0.0000 C   0  0  0  0  0  0  0  0  0  0  0  0
    0.3549   -1.6698    0.0000 O   0  0  0  0  0  0  0  0  0  0  0  0
   -1.1439   -1.7326    0.0000 C   0  0  0  0  0  0  0  0  0  0  0  0
    0.4413   -4.2464    0.0000 C   0  0  0  0  0  0  0  0  0  0  0  0
    1.2263   -5.5069    0.0000 C   0  0  0  0  0  0  0  0  0  0  0  0
    0.3893   -6.7435    0.0000 C   0  0  0  0  0  0  0  0  0  0  0  0
    1.0556   -8.0874    0.0000 C   0  0  0  0  0  0  0  0  0  0  0  0
    2.5526   -8.1894    0.0000 N   0  0  0  0  0  0  0  0  0  0  0  0
    2.4539   -9.6862    0.0000 C   0  0  0  0  0  0  0  0  0  0  0  0
    3.7959   -9.0287    0.0000 C   0  0  0  0  0  0  0  0  0  0  0  0
    6.4642   -5.3300    0.0000 C   0  0  0  0  0  0  0  0  0  0  0  0
    7.8147   -4.6654    0.0000 C   0  0  0  0  0  0  0  0  0  0  0  0
  1  2  1  0  0  0  0
  2  3  1  0  0  0  0
  4  3  2  0  0  0  0
  3 35  1  0  0  0  0
  5  4  1  0  0  0  0
  6  5  2  0  0  0  0
  6  7  1  0  0  0  0
 36  6  1  0  0  0  0
  7  8  1  0  0  0  0
  9  8  1  0  0  0  0
  8 13  1  0  0  0  0
  9 10  2  0  0  0  0
 23  9  1  0  0  0  0
 11 10  1  0  0  0  0
 10 16  1  0  0  0  0
 12 11  1  0  0  0  0
 13 12  1  0  0  0  0
 13 14  1  0  0  0  0
 13 15  1  0  0  0  0
 16 17  2  0  0  0  0
 17 18  1  0  0  0  0
 17 20  1  0  0  0  0
 18 19  1  0  0  0  0
 20 21  1  0  0  0  0
 20 23  2  0  0  0  0
 21 22  1  0  0  0  0
 23 24  1  0  0  0  0
 24 25  1  0  0  0  0
 26 25  2  0  0  0  0
 25 48  1  0  0  0  0
 27 26  1  0  0  0  0
 28 27  2  0  0  0  0
 28 29  1  0  0  0  0
 47 28  1  0  0  0  0
 29 30  1  0  0  0  0
 31 30  1  0  0  0  0
 30 44  1  0  0  0  0
 32 31  2  0  0  0  0
 31 41  1  0  0  0  0
 33 32  1  0  0  0  0
 33 34  1  0  0  0  0
 37 33  2  0  0  0  0
 34 35  1  0  0  0  0
 35 36  2  0  0  0  0
 37 38  1  0  0  0  0
 40 37  1  0  0  0  0
 38 39  1  0  0  0  0
 41 40  2  0  0  0  0
 42 41  1  0  0  0  0
 43 42  1  0  0  0  0
 44 43  1  0  0  0  0
 44 45  1  0  0  0  0
 44 46  1  0  0  0  0
 48 47  2  0  0  0  0
M  CHG  2  13   1  44   1
M  END
> <Inchi_key>
JFXBEKISTKFVAB-UHFFFAOYSA-N

> <Source>
Mulliner

> <ID>
HT1377

> <H_MFHB>
0

> <CAS>


> <Cholestasis>


> <Name>
metocurine iodide;metocurine

> <Class>
0

$$$$