
  -INDIGO-08031710012D

  6  5  0  0  0  0  0  0  0  0999 V2000
    3.3750    0.6495    0.0000 O   0  0  0  0  0  0  0  0  0  0  0  0
    2.6250   -0.6495    0.0000 C   0  0  0  0  0  0  0  0  0  0  0  0
    3.3750   -1.9486    0.0000 O   0  0  0  0  0  0  0  0  0  0  0  0
    1.1250   -0.6495    0.0000 C   0  0  0  0  0  0  0  0  0  0  0  0
    0.3750    0.6495    0.0000 Cl  0  0  0  0  0  0  0  0  0  0  0  0
    0.3750   -1.9486    0.0000 Cl  0  0  0  0  0  0  0  0  0  0  0  0
  1  2  1  0  0  0  0
  2  3  2  0  0  0  0
  2  4  1  0  0  0  0
  4  5  1  0  0  0  0
  4  6  1  0  0  0  0
M  END
> <Inchi_key>
JXTHNDFMNIQAHM-UHFFFAOYSA-N

> <Source>
Mulliner

> <ID>
HT0641

> <H_MFHB>
0

> <CAS>
2156-56-1;79-43-6;13425-80-4

> <Cholestasis>


> <Name>
dichloroacetic acid

> <Class>
0

$$$$