

  -INDIGO-08031710012D

 25 27  0  0  0  0  0  0  0  0999 V2000
    1.2038    1.5939    0.0000 C   0  0  0  0  0  0  0  0  0  0  0  0
    1.6142    0.1511    0.0000 N   0  0  0  0  0  0  0  0  0  0  0  0
    0.5699   -0.9256    0.0000 C   0  0  0  0  0  0  0  0  0  0  0  0
    3.0688   -0.2149    0.0000 C   0  0  0  0  0  0  0  0  0  0  0  0
    3.4792   -1.6576    0.0000 C   0  0  0  0  0  0  0  0  0  0  0  0
    4.9338   -2.0236    0.0000 C   0  0  0  0  0  0  0  0  0  0  0  0
    5.3442   -3.4664    0.0000 C   0  0  0  0  0  0  0  0  0  0  0  0
    4.2230   -4.4629    0.0000 C   0  0  0  0  0  0  0  0  0  0  0  0
    2.8861   -3.7825    0.0000 C   0  0  0  0  0  0  0  0  0  0  0  0
    1.6285   -4.6001    0.0000 C   0  0  0  0  0  0  0  0  0  0  0  0
    1.7077   -6.0979    0.0000 C   0  0  0  0  0  0  0  0  0  0  0  0
    3.0446   -6.7783    0.0000 C   0  0  0  0  0  0  0  0  0  0  0  0
    4.3022   -5.9607    0.0000 C   0  0  0  0  0  0  0  0  0  0  0  0
    5.5222   -6.8333    0.0000 C   0  0  0  0  0  0  0  0  0  0  0  0
    6.9654   -6.4243    0.0000 O   0  0  0  0  0  0  0  0  0  0  0  0
    7.5429   -5.0389    0.0000 C   0  0  0  0  0  0  0  0  0  0  0  0
    9.0426   -5.0722    0.0000 C   0  0  0  0  0  0  0  0  0  0  0  0
    9.8213   -3.7903    0.0000 C   0  0  0  0  0  0  0  0  0  0  0  0
    9.1002   -2.4748    0.0000 C   0  0  0  0  0  0  0  0  0  0  0  0
    9.8791   -1.1928    0.0000 C   0  0  0  0  0  0  0  0  0  0  0  0
   11.3786   -1.2261    0.0000 C   0  0  0  0  0  0  0  0  0  0  0  0
   12.1573    0.0560    0.0000 O   0  0  0  0  0  0  0  0  0  0  0  0
   12.0995   -2.5415    0.0000 O   0  0  0  0  0  0  0  0  0  0  0  0
    7.6007   -2.4415    0.0000 C   0  0  0  0  0  0  0  0  0  0  0  0
    6.8220   -3.7236    0.0000 C   0  0  0  0  0  0  0  0  0  0  0  0
  1  2  1  0  0  0  0
  2  3  1  0  0  0  0
  2  4  1  0  0  0  0
  4  5  1  0  0  0  0
  5  6  1  0  0  0  0
  6  7  2  0  0  0  0
  8  7  1  0  0  0  0
  7 25  1  0  0  0  0
  9  8  2  0  0  0  0
  8 13  1  0  0  0  0
 10  9  1  0  0  0  0
 11 10  2  0  0  0  0
 12 11  1  0  0  0  0
 13 12  2  0  0  0  0
 14 13  1  0  0  0  0
 15 14  1  0  0  0  0
 16 15  1  0  0  0  0
 17 16  2  0  0  0  0
 16 25  1  0  0  0  0
 18 17  1  0  0  0  0
 19 18  2  0  0  0  0
 19 20  1  0  0  0  0
 24 19  1  0  0  0  0
 20 21  1  0  0  0  0
 21 22  2  0  0  0  0
 21 23  1  0  0  0  0
 25 24  2  0  0  0  0
M  END
> <Inchi_key>
JBIMVDZLSHOPLA-QGMBQPNBSA-N

> <Source>
Mulliner , Kotsampasakou

> <ID>
EK0392;HT1537

> <H_MFHB>
0

> <CAS>


> <Cholestasis>
0

> <Name>
olopatadine hydrochloride;olopatadine

> <Class>
0


$$$$