

  -INDIGO-08031710012D

 26 29  0  0  0  0  0  0  0  0999 V2000
   -1.7178   -3.8232    0.0000 C   0  0  0  0  0  0  0  0  0  0  0  0
   -2.4840   -2.5337    0.0000 C   0  0  0  0  0  0  0  0  0  0  0  0
   -3.2403   -3.8291    0.0000 C   0  0  0  0  0  0  0  0  0  0  0  0
   -4.7404   -3.8218    0.0000 C   0  0  0  0  0  0  0  0  0  0  0  0
   -5.4839   -2.5191    0.0000 C   0  0  0  0  0  0  0  0  0  0  0  0
   -6.9840   -2.5119    0.0000 O   0  0  0  0  0  0  0  0  0  0  0  0
   -4.7276   -1.2238    0.0000 C   0  0  0  0  0  0  0  0  0  0  0  0
   -3.2278   -1.2310    0.0000 C   0  0  0  0  0  0  0  0  0  0  0  0
   -2.4715    0.0644    0.0000 C   0  0  0  0  0  0  0  0  0  0  0  0
   -0.9716    0.0571    0.0000 C   0  0  0  0  0  0  0  0  0  0  0  0
   -0.2278   -1.2456    0.0000 C   0  0  0  0  0  0  0  0  0  0  0  0
    1.2722   -1.2528    0.0000 C   0  0  0  0  0  0  0  0  0  0  0  0
    2.2813   -0.1430    0.0000 C   0  0  0  0  0  0  0  0  0  0  0  0
    3.6485   -0.7597    0.0000 C   0  0  0  0  0  0  0  0  0  0  0  0
    3.4846   -2.2507    0.0000 C   0  0  0  0  0  0  0  0  0  0  0  0
    3.8659   -3.7015    0.0000 O   0  0  0  0  0  0  0  0  0  0  0  0
    4.9445   -2.5952    0.0000 C   0  0  0  0  0  0  0  0  0  0  0  0
    5.3761   -4.0318    0.0000 O   0  0  0  0  0  0  0  0  0  0  0  0
    5.9729   -1.5032    0.0000 C   0  0  0  0  0  0  0  0  0  0  0  0
    7.4327   -1.8477    0.0000 O   0  0  0  0  0  0  0  0  0  0  0  0
    2.0158   -2.5555    0.0000 C   0  0  0  0  0  0  0  0  0  0  0  0
    2.8918   -3.7733    0.0000 C   0  0  0  0  0  0  0  0  0  0  0  0
    1.2597   -3.8509    0.0000 C   0  0  0  0  0  0  0  0  0  0  0  0
   -0.2404   -3.8436    0.0000 C   0  0  0  0  0  0  0  0  0  0  0  0
   -0.9967   -5.1390    0.0000 O   0  0  0  0  0  0  0  0  0  0  0  0
   -0.9841   -2.5410    0.0000 C   0  0  0  0  0  0  0  0  0  0  0  0
  1  2  1  0  0  0  0
  3  2  1  0  0  0  0
  8  2  1  0  0  0  0
  2 26  1  0  0  0  0
  4  3  1  0  0  0  0
  5  4  1  0  0  0  0
  5  6  2  0  0  0  0
  7  5  1  0  0  0  0
  8  7  2  0  0  0  0
  9  8  1  0  0  0  0
 10  9  1  0  0  0  0
 11 10  1  0  0  0  0
 12 11  1  0  0  0  0
 11 26  1  0  0  0  0
 13 12  1  0  0  0  0
 12 21  1  0  0  0  0
 14 13  1  0  0  0  0
 15 14  1  0  0  0  0
 15 16  1  0  0  0  0
 15 17  1  0  0  0  0
 21 15  1  0  0  0  0
 17 18  2  0  0  0  0
 17 19  1  0  0  0  0
 19 20  1  0  0  0  0
 21 22  1  0  0  0  0
 23 21  1  0  0  0  0
 24 23  1  0  0  0  0
 24 25  1  0  0  0  0
 26 24  1  0  0  0  0
M  END
> <Inchi_key>
JYGXADMDTFJGBT-UHFFFAOYSA-N

> <Source>
Mulliner

> <ID>
HT1047

> <H_MFHB>
0

> <CAS>
50-23-7

> <Cholestasis>


> <Name>
hydrocortisone

> <Class>
0


$$$$