
  -INDIGO-08031710012D

 22 22  0  0  0  0  0  0  0  0999 V2000
   21.3348   -5.7167    0.0000 C   0  0  0  0  0  0  0  0  0  0  0  0
   20.0358   -4.9667    0.0000 C   0  0  0  0  0  0  0  0  0  0  0  0
   18.7367   -5.7167    0.0000 O   0  0  0  0  0  0  0  0  0  0  0  0
   17.4377   -4.9667    0.0000 C   0  0  0  0  0  0  0  0  0  0  0  0
   17.4377   -3.4667    0.0000 O   0  0  0  0  0  0  0  0  0  0  0  0
   16.1387   -5.7167    0.0000 C   0  0  0  0  0  0  0  0  0  0  0  0
   14.8396   -4.9667    0.0000 C   0  0  0  0  0  0  0  0  0  0  0  0
   13.5406   -5.7167    0.0000 C   0  0  0  0  0  0  0  0  0  0  0  0
   12.2416   -4.9667    0.0000 C   0  0  0  0  0  0  0  0  0  0  0  0
   10.9425   -5.7167    0.0000 C   0  0  0  0  0  0  0  0  0  0  0  0
    9.6435   -4.9667    0.0000 C   0  0  0  0  0  0  0  0  0  0  0  0
    8.3445   -5.7167    0.0000 C   0  0  0  0  0  0  0  0  0  0  0  0
    7.0454   -4.9667    0.0000 C   0  0  0  0  0  0  0  0  0  0  0  0
    5.7464   -5.7167    0.0000 C   0  0  0  0  0  0  0  0  0  0  0  0
    5.7464   -7.2167    0.0000 C   0  0  0  0  0  0  0  0  0  0  0  0
    4.4474   -4.9667    0.0000 C   0  0  0  0  0  0  0  0  0  0  0  0
    4.4474   -3.4667    0.0000 C   0  0  0  0  0  0  0  0  0  0  0  0
    3.1483   -2.7167    0.0000 C   0  0  0  0  0  0  0  0  0  0  0  0
    1.8493   -3.4667    0.0000 C   0  0  0  0  0  0  0  0  0  0  0  0
    1.8493   -4.9667    0.0000 C   0  0  0  0  0  0  0  0  0  0  0  0
    3.1483   -5.7167    0.0000 C   0  0  0  0  0  0  0  0  0  0  0  0
    3.1483   -7.2167    0.0000 I   0  0  0  0  0  0  0  0  0  0  0  0
  1  2  1  0  0  0  0
  2  3  1  0  0  0  0
  3  4  1  0  0  0  0
  4  5  2  0  0  0  0
  4  6  1  0  0  0  0
  6  7  1  0  0  0  0
  7  8  1  0  0  0  0
  8  9  1  0  0  0  0
  9 10  1  0  0  0  0
 10 11  1  0  0  0  0
 11 12  1  0  0  0  0
 12 13  1  0  0  0  0
 13 14  1  0  0  0  0
 14 15  1  0  0  0  0
 14 16  1  0  0  0  0
 17 16  2  0  0  0  0
 16 21  1  0  0  0  0
 18 17  1  0  0  0  0
 19 18  2  0  0  0  0
 20 19  1  0  0  0  0
 21 20  2  0  0  0  0
 21 22  1  0  0  0  0
M  END
> <Inchi_key>
IWRUDYQZPTVTPA-UHFFFAOYSA-N

> <Source>
Mulliner

> <ID>
HT1113

> <H_MFHB>
0

> <CAS>


> <Cholestasis>


> <Name>
iophendylate

> <Class>
0

$$$$