

  -INDIGO-08031710012D

 18 19  0  0  0  0  0  0  0  0999 V2000
    0.0921   -3.0188    0.0000 C   0  0  0  0  0  0  0  0  0  0  0  0
    1.4049   -2.2931    0.0000 C   0  0  0  0  0  0  0  0  0  0  0  0
    2.6897   -3.0672    0.0000 N   0  0  0  0  0  0  0  0  0  0  0  0
    4.0026   -2.3416    0.0000 C   0  0  0  0  0  0  0  0  0  0  0  0
    4.0306   -0.8418    0.0000 C   0  0  0  0  0  0  0  0  0  0  0  0
    5.3432   -0.1162    0.0000 C   0  0  0  0  0  0  0  0  0  0  0  0
    6.6280   -0.8902    0.0000 N   0  0  0  0  0  0  0  0  0  0  0  0
    6.7570   -2.3847    0.0000 C   0  0  0  0  0  0  0  0  0  0  0  0
    8.2183   -2.7238    0.0000 S   0  0  0  0  0  0  0  0  0  0  0  0
    8.9923   -1.4390    0.0000 C   0  0  0  0  0  0  0  0  0  0  0  0
   10.4868   -1.3100    0.0000 C   0  0  0  0  0  0  0  0  0  0  0  0
   11.3456   -2.5398    0.0000 C   0  0  0  0  0  0  0  0  0  0  0  0
   12.8401   -2.4108    0.0000 O   0  0  0  0  0  0  0  0  0  0  0  0
    8.0095   -0.3058    0.0000 C   0  0  0  0  0  0  0  0  0  0  0  0
    8.3488    1.1554    0.0000 C   0  0  0  0  0  0  0  0  0  0  0  0
    2.7456   -0.0677    0.0000 C   0  0  0  0  0  0  0  0  0  0  0  0
    2.7736    1.4320    0.0000 N   0  0  0  0  0  0  0  0  0  0  0  0
    1.4327   -0.7934    0.0000 N   0  0  0  0  0  0  0  0  0  0  0  0
  1  2  1  0  0  0  0
  3  2  2  0  0  0  0
  2 18  1  0  0  0  0
  4  3  1  0  0  0  0
  5  4  2  0  0  0  0
  5  6  1  0  0  0  0
 16  5  1  0  0  0  0
  6  7  1  0  0  0  0
  8  7  2  0  0  0  0
  7 14  1  0  0  0  0
  9  8  1  0  0  0  0
 10  9  1  0  0  0  0
 10 11  1  0  0  0  0
 14 10  2  0  0  0  0
 11 12  1  0  0  0  0
 12 13  1  0  0  0  0
 14 15  1  0  0  0  0
 16 17  1  0  0  0  0
 18 16  2  0  0  0  0
M  CHG  1   7   1
M  END
> <Inchi_key>
JZRWCGZRTZMZEH-UHFFFAOYSA-N

> <Source>
Mulliner

> <ID>
HT2036

> <H_MFHB>
0

> <CAS>


> <Cholestasis>


> <Name>
thiamine hydrochloride;thiamine

> <Class>
0


$$$$