
  -INDIGO-08031710012D

 15 15  0  0  0  0  0  0  0  0999 V2000
   11.3024   -1.1285    0.0000 C   0  0  0  0  0  0  0  0  0  0  0  0
   10.0033   -1.8785    0.0000 C   0  0  0  0  0  0  0  0  0  0  0  0
   10.0033   -3.3785    0.0000 C   0  0  0  0  0  0  0  0  0  0  0  0
    8.7043   -1.1285    0.0000 N   0  0  0  0  0  0  0  0  0  0  0  0
    7.4052   -1.8785    0.0000 C   0  0  0  0  0  0  0  0  0  0  0  0
    6.1062   -1.1285    0.0000 C   0  0  0  0  0  0  0  0  0  0  0  0
    6.1062    0.3715    0.0000 O   0  0  0  0  0  0  0  0  0  0  0  0
    4.8073   -1.8785    0.0000 C   0  0  0  0  0  0  0  0  0  0  0  0
    4.8073   -3.3785    0.0000 C   0  0  0  0  0  0  0  0  0  0  0  0
    3.5081   -4.1285    0.0000 C   0  0  0  0  0  0  0  0  0  0  0  0
    2.2092   -3.3785    0.0000 C   0  0  0  0  0  0  0  0  0  0  0  0
    0.9101   -4.1285    0.0000 O   0  0  0  0  0  0  0  0  0  0  0  0
    2.2092   -1.8785    0.0000 C   0  0  0  0  0  0  0  0  0  0  0  0
    0.9101   -1.1285    0.0000 O   0  0  0  0  0  0  0  0  0  0  0  0
    3.5081   -1.1285    0.0000 C   0  0  0  0  0  0  0  0  0  0  0  0
  1  2  1  0  0  0  0
  2  3  1  0  0  0  0
  2  4  1  0  0  0  0
  4  5  1  0  0  0  0
  5  6  1  0  0  0  0
  6  7  1  0  0  0  0
  6  8  1  0  0  0  0
  9  8  2  0  0  0  0
  8 15  1  0  0  0  0
 10  9  1  0  0  0  0
 11 10  2  0  0  0  0
 11 12  1  0  0  0  0
 13 11  1  0  0  0  0
 13 14  1  0  0  0  0
 15 13  2  0  0  0  0
M  END
> <Inchi_key>
JWZZKOKVBUJMES-UHFFFAOYSA-N

> <Source>
Mulliner , Kotsampasakou

> <ID>
EK0282;HT1137

> <H_MFHB>
0

> <CAS>
149-53-1

> <Cholestasis>
0

> <Name>
isoproterenol;isoproterenol hydrochloride

> <Class>
0

$$$$