
  -INDIGO-08031710012D

 19 22  0  0  0  0  0  0  0  0999 V2000
    0.3169   -3.3700    0.0000 C   0  0  0  0  0  0  0  0  0  0  0  0
    1.7905   -3.0904    0.0000 N   0  0  0  0  0  0  0  0  0  0  0  0
    3.3707   -3.3253    0.0000 C   0  0  0  0  0  0  0  0  0  0  0  0
    4.2874   -1.6618    0.0000 C   0  0  0  0  0  0  0  0  0  0  0  0
    4.2798   -0.2207    0.0000 C   0  0  0  0  0  0  0  0  0  0  0  0
    4.2633    1.2532    0.0000 C   0  0  0  0  0  0  0  0  0  0  0  0
    2.9872    1.9798    0.0000 C   0  0  0  0  0  0  0  0  0  0  0  0
    1.7114    1.2418    0.0000 C   0  0  0  0  0  0  0  0  0  0  0  0
    1.7278   -0.2338    0.0000 C   0  0  0  0  0  0  0  0  0  0  0  0
    3.0025   -0.9595    0.0000 C   0  0  0  0  0  0  0  0  0  0  0  0
    3.0233   -2.3803    0.0000 C   0  0  0  0  0  0  0  0  0  0  0  0
    4.2948   -3.1582    0.0000 C   0  0  0  0  0  0  0  0  0  0  0  0
    5.5505   -2.4084    0.0000 C   0  0  0  0  0  0  0  0  0  0  0  0
    6.8317   -3.1799    0.0000 C   0  0  0  0  0  0  0  0  0  0  0  0
    8.1405   -2.4472    0.0000 C   0  0  0  0  0  0  0  0  0  0  0  0
    8.1604   -0.9473    0.0000 C   0  0  0  0  0  0  0  0  0  0  0  0
    9.4692   -0.2145    0.0000 O   0  0  0  0  0  0  0  0  0  0  0  0
    6.8711   -0.1797    0.0000 C   0  0  0  0  0  0  0  0  0  0  0  0
    5.5545   -0.9442    0.0000 C   0  0  0  0  0  0  0  0  0  0  0  0
  1  2  1  0  0  0  0
  3  2  1  0  0  0  0
  2 11  1  0  0  0  0
  4  3  1  0  0  0  0
  5  4  1  0  0  0  0
  6  5  1  0  0  0  0
  5 10  1  0  0  0  0
 19  5  1  0  0  0  0
  7  6  1  0  0  0  0
  8  7  1  0  0  0  0
  9  8  1  0  0  0  0
 10  9  1  0  0  0  0
 10 11  1  0  0  0  0
 11 12  1  0  0  0  0
 12 13  1  0  0  0  0
 14 13  2  0  0  0  0
 13 19  1  0  0  0  0
 15 14  1  0  0  0  0
 16 15  2  0  0  0  0
 16 17  1  0  0  0  0
 18 16  1  0  0  0  0
 19 18  2  0  0  0  0
M  END
> <Inchi_key>
JAQUASYNZVUNQP-UHFFFAOYSA-N

> <Source>
Mulliner

> <ID>
HT1201

> <H_MFHB>
0

> <CAS>


> <Cholestasis>


> <Name>
levorphanol

> <Class>
0

$$$$