
  -INDIGO-08031709442D

 33 36  0  0  0  0  0  0  0  0999 V2000
    0.0267    2.8339    0.0000 O   0  0  0  0  0  0  0  0  0  0  0  0
    1.3257    2.0839    0.0000 C   0  0  0  0  0  0  0  0  0  0  0  0
    1.3257    0.5839    0.0000 C   0  0  0  0  0  0  0  0  0  0  0  0
    0.0267   -0.1661    0.0000 C   0  0  0  0  0  0  0  0  0  0  0  0
    0.0267   -1.6661    0.0000 O   0  0  0  0  0  0  0  0  0  0  0  0
   -1.2724    0.5839    0.0000 N   0  0  0  0  0  0  0  0  0  0  0  0
    2.6246   -0.1661    0.0000 C   0  0  0  0  0  0  0  0  0  0  0  0
    2.6246   -1.6661    0.0000 O   0  0  0  0  0  0  0  0  0  0  0  0
    3.9238    0.5839    0.0000 C   0  0  0  0  0  0  0  0  0  0  0  0
    3.9238   -0.9161    0.0000 O   0  0  0  0  0  0  0  0  0  0  0  0
    3.9238    2.0839    0.0000 C   0  0  0  0  0  0  0  0  0  0  0  0
    2.6246    2.8339    0.0000 C   0  0  0  0  0  0  0  0  0  0  0  0
    2.6246    4.3339    0.0000 N   0  0  0  0  0  0  0  0  0  0  0  0
    1.3257    5.0839    0.0000 C   0  0  0  0  0  0  0  0  0  0  0  0
    3.9238    5.0839    0.0000 C   0  0  0  0  0  0  0  0  0  0  0  0
    5.2227    2.8339    0.0000 C   0  0  0  0  0  0  0  0  0  0  0  0
    5.2227    4.3339    0.0000 O   0  0  0  0  0  0  0  0  0  0  0  0
    6.5218    2.0839    0.0000 C   0  0  0  0  0  0  0  0  0  0  0  0
    6.5218    0.5839    0.0000 C   0  0  0  0  0  0  0  0  0  0  0  0
    5.2227   -0.1661    0.0000 C   0  0  0  0  0  0  0  0  0  0  0  0
    5.2227   -1.6661    0.0000 O   0  0  0  0  0  0  0  0  0  0  0  0
    7.8210   -0.1661    0.0000 C   0  0  0  0  0  0  0  0  0  0  0  0
    7.8210   -1.6661    0.0000 O   0  0  0  0  0  0  0  0  0  0  0  0
    9.1199    0.5839    0.0000 C   0  0  0  0  0  0  0  0  0  0  0  0
    9.1199    2.0839    0.0000 C   0  0  0  0  0  0  0  0  0  0  0  0
   10.4191    2.8339    0.0000 C   0  0  0  0  0  0  0  0  0  0  0  0
   11.7180    2.0839    0.0000 C   0  0  0  0  0  0  0  0  0  0  0  0
   11.7180    0.5839    0.0000 C   0  0  0  0  0  0  0  0  0  0  0  0
   10.4191   -0.1661    0.0000 C   0  0  0  0  0  0  0  0  0  0  0  0
   10.4191   -1.6661    0.0000 O   0  0  0  0  0  0  0  0  0  0  0  0
    7.8210    2.8339    0.0000 C   0  0  0  0  0  0  0  0  0  0  0  0
    8.5708    4.1330    0.0000 O   0  0  0  0  0  0  0  0  0  0  0  0
    7.0709    4.1330    0.0000 C   0  0  0  0  0  0  0  0  0  0  0  0
  1  2  1  0  0  0  0
  3  2  2  0  0  0  0
  2 12  1  0  0  0  0
  3  4  1  0  0  0  0
  7  3  1  0  0  0  0
  4  5  2  0  0  0  0
  4  6  1  0  0  0  0
  7  8  2  0  0  0  0
  9  7  1  0  0  0  0
  9 10  1  0  0  0  0
  9 11  1  0  0  0  0
 20  9  1  0  0  0  0
 12 11  1  0  0  0  0
 11 16  1  0  0  0  0
 12 13  1  0  0  0  0
 13 14  1  0  0  0  0
 13 15  1  0  0  0  0
 16 17  1  0  0  0  0
 16 18  1  0  0  0  0
 19 18  1  0  0  0  0
 18 31  1  0  0  0  0
 19 20  2  0  0  0  0
 22 19  1  0  0  0  0
 20 21  1  0  0  0  0
 22 23  2  0  0  0  0
 24 22  1  0  0  0  0
 24 25  2  0  0  0  0
 29 24  1  0  0  0  0
 25 26  1  0  0  0  0
 31 25  1  0  0  0  0
 26 27  2  0  0  0  0
 27 28  1  0  0  0  0
 28 29  2  0  0  0  0
 29 30  1  0  0  0  0
 31 32  1  0  0  0  0
 31 33  1  0  0  0  0
M  END
> <Inchi_key>
IWVCMVBTMGNXQD-UHFFFAOYSA-N

> <Source>
Kotsampasakou

> <ID>
EK0397

> <H_MFHB>


> <CAS>


> <Cholestasis>
0

> <Name>
oxytetracycline

> <Class>
0

$$$$