
  -INDIGO-08031710012D

 18 19  0  0  0  0  0  0  0  0999 V2000
   13.9075   -3.7265    0.0000 C   0  0  0  0  0  0  0  0  0  0  0  0
   12.6084   -2.9765    0.0000 C   0  0  0  0  0  0  0  0  0  0  0  0
   12.6084   -1.4765    0.0000 C   0  0  0  0  0  0  0  0  0  0  0  0
   11.3093   -3.7265    0.0000 N   0  0  0  0  0  0  0  0  0  0  0  0
   10.0105   -2.9765    0.0000 C   0  0  0  0  0  0  0  0  0  0  0  0
    8.7114   -3.7265    0.0000 C   0  0  0  0  0  0  0  0  0  0  0  0
    8.7114   -5.2265    0.0000 O   0  0  0  0  0  0  0  0  0  0  0  0
    7.4123   -2.9765    0.0000 C   0  0  0  0  0  0  0  0  0  0  0  0
    6.1132   -3.7265    0.0000 O   0  0  0  0  0  0  0  0  0  0  0  0
    4.8142   -2.9765    0.0000 C   0  0  0  0  0  0  0  0  0  0  0  0
    4.8142   -1.4765    0.0000 C   0  0  0  0  0  0  0  0  0  0  0  0
    3.5153   -0.7265    0.0000 C   0  0  0  0  0  0  0  0  0  0  0  0
    2.2162   -1.4765    0.0000 C   0  0  0  0  0  0  0  0  0  0  0  0
    2.2162   -2.9765    0.0000 C   0  0  0  0  0  0  0  0  0  0  0  0
    1.1014   -3.9802    0.0000 N   0  0  0  0  0  0  0  0  0  0  0  0
    1.7115   -5.3505    0.0000 C   0  0  0  0  0  0  0  0  0  0  0  0
    3.2032   -5.1937    0.0000 C   0  0  0  0  0  0  0  0  0  0  0  0
    3.5153   -3.7265    0.0000 C   0  0  0  0  0  0  0  0  0  0  0  0
  1  2  1  0  0  0  0
  2  3  1  0  0  0  0
  2  4  1  0  0  0  0
  4  5  1  0  0  0  0
  5  6  1  0  0  0  0
  6  7  1  0  0  0  0
  6  8  1  0  0  0  0
  8  9  1  0  0  0  0
  9 10  1  0  0  0  0
 11 10  2  0  0  0  0
 10 18  1  0  0  0  0
 12 11  1  0  0  0  0
 13 12  2  0  0  0  0
 14 13  1  0  0  0  0
 15 14  1  0  0  0  0
 14 18  2  0  0  0  0
 16 15  1  0  0  0  0
 17 16  2  0  0  0  0
 18 17  1  0  0  0  0
M  END
> <Inchi_key>
JZQKKSLKJUAGIC-UHFFFAOYSA-N

> <Source>
Mulliner , Kotsampasakou

> <ID>
EK0427;HT1676

> <H_MFHB>
0

> <CAS>


> <Cholestasis>
0

> <Name>
pindolol

> <Class>
0

$$$$