
  -INDIGO-08031710012D

 27 29  0  0  0  0  0  0  0  0999 V2000
    9.2983   -4.0147    0.0000 C   0  0  0  0  0  0  0  0  0  0  0  0
    8.9864   -5.4819    0.0000 N   0  0  0  0  0  0  0  0  0  0  0  0
    9.9900   -6.5965    0.0000 C   0  0  0  0  0  0  0  0  0  0  0  0
    9.2400   -7.8957    0.0000 C   0  0  0  0  0  0  0  0  0  0  0  0
    7.7728   -7.5838    0.0000 C   0  0  0  0  0  0  0  0  0  0  0  0
    7.6160   -6.0920    0.0000 C   0  0  0  0  0  0  0  0  0  0  0  0
    6.3170   -5.3420    0.0000 C   0  0  0  0  0  0  0  0  0  0  0  0
    5.0179   -6.0920    0.0000 O   0  0  0  0  0  0  0  0  0  0  0  0
    3.7190   -5.3420    0.0000 C   0  0  0  0  0  0  0  0  0  0  0  0
    3.7190   -3.8420    0.0000 O   0  0  0  0  0  0  0  0  0  0  0  0
    2.4198   -6.0920    0.0000 C   0  0  0  0  0  0  0  0  0  0  0  0
    2.4198   -7.5920    0.0000 O   0  0  0  0  0  0  0  0  0  0  0  0
    1.1209   -8.3420    0.0000 C   0  0  0  0  0  0  0  0  0  0  0  0
    1.1209   -9.8420    0.0000 C   0  0  0  0  0  0  0  0  0  0  0  0
   -0.1782  -10.5920    0.0000 C   0  0  0  0  0  0  0  0  0  0  0  0
   -1.4774   -9.8420    0.0000 C   0  0  0  0  0  0  0  0  0  0  0  0
   -2.7763  -10.5920    0.0000 Cl  0  0  0  0  0  0  0  0  0  0  0  0
   -1.4774   -8.3420    0.0000 C   0  0  0  0  0  0  0  0  0  0  0  0
   -0.1782   -7.5920    0.0000 C   0  0  0  0  0  0  0  0  0  0  0  0
    1.1209   -5.3420    0.0000 O   0  0  0  0  0  0  0  0  0  0  0  0
    1.1209   -3.8420    0.0000 C   0  0  0  0  0  0  0  0  0  0  0  0
   -0.1782   -3.0920    0.0000 C   0  0  0  0  0  0  0  0  0  0  0  0
   -0.1782   -1.5920    0.0000 C   0  0  0  0  0  0  0  0  0  0  0  0
    1.1209   -0.8420    0.0000 C   0  0  0  0  0  0  0  0  0  0  0  0
    1.1209    0.6580    0.0000 Cl  0  0  0  0  0  0  0  0  0  0  0  0
    2.4198   -1.5920    0.0000 C   0  0  0  0  0  0  0  0  0  0  0  0
    2.4198   -3.0920    0.0000 C   0  0  0  0  0  0  0  0  0  0  0  0
  1  2  1  0  0  0  0
  3  2  1  0  0  0  0
  2  6  1  0  0  0  0
  4  3  1  0  0  0  0
  5  4  1  0  0  0  0
  6  5  1  0  0  0  0
  6  7  1  0  0  0  0
  7  8  1  0  0  0  0
  8  9  1  0  0  0  0
  9 10  2  0  0  0  0
  9 11  1  0  0  0  0
 11 12  1  0  0  0  0
 11 20  1  0  0  0  0
 12 13  1  0  0  0  0
 14 13  2  0  0  0  0
 13 19  1  0  0  0  0
 15 14  1  0  0  0  0
 16 15  2  0  0  0  0
 16 17  1  0  0  0  0
 18 16  1  0  0  0  0
 19 18  2  0  0  0  0
 20 21  1  0  0  0  0
 22 21  2  0  0  0  0
 21 27  1  0  0  0  0
 23 22  1  0  0  0  0
 24 23  2  0  0  0  0
 24 25  1  0  0  0  0
 26 24  1  0  0  0  0
 27 26  2  0  0  0  0
M  END
> <Inchi_key>
JAXUFJQVMKFWNB-UHFFFAOYSA-N

> <Source>
Mulliner

> <ID>
HT0284

> <H_MFHB>
0

> <CAS>
54063-27-3

> <Cholestasis>


> <Name>
biclofibrate

> <Class>
0

$$$$