

  -INDIGO-08031710012D

 13 14  0  0  0  0  0  0  0  0999 V2000
    7.6584   -2.7444    0.0000 N   0  0  0  0  0  0  0  0  0  0  0  0
    6.3594   -3.4944    0.0000 C   0  0  0  0  0  0  0  0  0  0  0  0
    6.3594   -4.9944    0.0000 N   0  0  0  0  0  0  0  0  0  0  0  0
    5.0605   -2.7444    0.0000 N   0  0  0  0  0  0  0  0  0  0  0  0
    5.0605   -1.2444    0.0000 C   0  0  0  0  0  0  0  0  0  0  0  0
    3.7614   -0.4944    0.0000 C   0  0  0  0  0  0  0  0  0  0  0  0
    2.4623   -1.2444    0.0000 C   0  0  0  0  0  0  0  0  0  0  0  0
    1.1632   -0.4944    0.0000 C   0  0  0  0  0  0  0  0  0  0  0  0
   -0.1358   -1.2444    0.0000 C   0  0  0  0  0  0  0  0  0  0  0  0
   -0.1358   -2.7444    0.0000 C   0  0  0  0  0  0  0  0  0  0  0  0
    1.1632   -3.4944    0.0000 C   0  0  0  0  0  0  0  0  0  0  0  0
    2.4623   -2.7444    0.0000 C   0  0  0  0  0  0  0  0  0  0  0  0
    3.7614   -3.4944    0.0000 C   0  0  0  0  0  0  0  0  0  0  0  0
  1  2  1  0  0  0  0
  2  3  2  0  0  0  0
  2  4  1  0  0  0  0
  5  4  1  0  0  0  0
  4 13  1  0  0  0  0
  6  5  1  0  0  0  0
  7  6  1  0  0  0  0
  8  7  1  0  0  0  0
  7 12  2  0  0  0  0
  9  8  2  0  0  0  0
 10  9  1  0  0  0  0
 11 10  2  0  0  0  0
 12 11  1  0  0  0  0
 13 12  1  0  0  0  0
M  END
> <Inchi_key>
JWPGJSVJDAJRLW-UHFFFAOYSA-N

> <Source>
Mulliner

> <ID>
HT0596

> <H_MFHB>
0

> <CAS>


> <Cholestasis>


> <Name>
debrisoquin

> <Class>
0


$$$$