

  -INDIGO-08031710012D

 15 15  0  0  0  0  0  0  0  0999 V2000
   11.6720   -3.1275    0.0000 O   0  0  0  0  0  0  0  0  0  0  0  0
   10.3729   -2.3775    0.0000 N   0  0  0  0  0  0  0  0  0  0  0  0
    9.0740   -3.1275    0.0000 C   0  0  0  0  0  0  0  0  0  0  0  0
    9.0740   -4.6275    0.0000 O   0  0  0  0  0  0  0  0  0  0  0  0
    7.7749   -2.3775    0.0000 C   0  0  0  0  0  0  0  0  0  0  0  0
    6.4758   -3.1275    0.0000 N   0  0  0  0  0  0  0  0  0  0  0  0
    5.1768   -2.3775    0.0000 C   0  0  0  0  0  0  0  0  0  0  0  0
    5.1768   -0.8775    0.0000 O   0  0  0  0  0  0  0  0  0  0  0  0
    3.8777   -3.1275    0.0000 C   0  0  0  0  0  0  0  0  0  0  0  0
    3.8777   -4.6275    0.0000 C   0  0  0  0  0  0  0  0  0  0  0  0
    2.5786   -5.3775    0.0000 C   0  0  0  0  0  0  0  0  0  0  0  0
    1.2797   -4.6275    0.0000 C   0  0  0  0  0  0  0  0  0  0  0  0
   -0.0194   -5.3775    0.0000 Cl  0  0  0  0  0  0  0  0  0  0  0  0
    1.2797   -3.1275    0.0000 C   0  0  0  0  0  0  0  0  0  0  0  0
    2.5786   -2.3775    0.0000 C   0  0  0  0  0  0  0  0  0  0  0  0
  1  2  1  0  0  0  0
  2  3  1  0  0  0  0
  3  4  2  0  0  0  0
  3  5  1  0  0  0  0
  5  6  1  0  0  0  0
  6  7  1  0  0  0  0
  7  8  2  0  0  0  0
  7  9  1  0  0  0  0
 10  9  2  0  0  0  0
  9 15  1  0  0  0  0
 11 10  1  0  0  0  0
 12 11  2  0  0  0  0
 12 13  1  0  0  0  0
 14 12  1  0  0  0  0
 15 14  2  0  0  0  0
M  END
> <Inchi_key>
JFZGBMJPJZDNNT-UHFFFAOYSA-N

> <Source>
Mulliner

> <ID>
HT0243

> <H_MFHB>
0

> <CAS>
38274-54-3

> <Cholestasis>


> <Name>
benurestat

> <Class>
0


$$$$