

  -INDIGO-08031710012D

 10  9  0  0  0  0  0  0  0  0999 V2000
    6.8275   -0.2706    0.0000 F   0  0  0  0  0  0  0  0  0  0  0  0
    5.5285    0.4794    0.0000 C   0  0  0  0  0  0  0  0  0  0  0  0
    5.5285    1.9794    0.0000 F   0  0  0  0  0  0  0  0  0  0  0  0
    4.2294   -0.2706    0.0000 O   0  0  0  0  0  0  0  0  0  0  0  0
    2.9304    0.4794    0.0000 C   0  0  0  0  0  0  0  0  0  0  0  0
    3.6804    1.7785    0.0000 F   0  0  0  0  0  0  0  0  0  0  0  0
    2.1804   -0.8196    0.0000 F   0  0  0  0  0  0  0  0  0  0  0  0
    1.6313    1.2294    0.0000 C   0  0  0  0  0  0  0  0  0  0  0  0
    0.3323    0.4794    0.0000 F   0  0  0  0  0  0  0  0  0  0  0  0
    1.6313    2.7294    0.0000 Cl  0  0  0  0  0  0  0  0  0  0  0  0
  1  2  1  0  0  0  0
  2  3  1  0  0  0  0
  2  4  1  0  0  0  0
  4  5  1  0  0  0  0
  5  6  1  0  0  0  0
  5  7  1  0  0  0  0
  5  8  1  0  0  0  0
  8  9  1  0  0  0  0
  8 10  1  0  0  0  0
M  END
> <Inchi_key>
JPGQOUSTVILISH-UHFFFAOYSA-N

> <Source>
Mulliner

> <ID>
HT0756

> <H_MFHB>
0

> <CAS>
13838-16-9

> <Cholestasis>


> <Name>
enflurane

> <Class>
0


$$$$