
  -INDIGO-08031710012D

 20 21  0  0  0  0  0  0  0  0999 V2000
   -2.3510   -0.6300    0.0000 O   0  0  0  0  0  0  0  0  0  0  0  0
   -3.6500   -1.3800    0.0000 C   0  0  0  0  0  0  0  0  0  0  0  0
   -4.9491   -0.6300    0.0000 O   0  0  0  0  0  0  0  0  0  0  0  0
   -3.6500   -2.8800    0.0000 C   0  0  0  0  0  0  0  0  0  0  0  0
   -4.9491   -3.6300    0.0000 C   0  0  0  0  0  0  0  0  0  0  0  0
   -4.9491   -5.1300    0.0000 C   0  0  0  0  0  0  0  0  0  0  0  0
   -3.6500   -5.8800    0.0000 C   0  0  0  0  0  0  0  0  0  0  0  0
   -2.3510   -5.1300    0.0000 N   0  0  0  0  0  0  0  0  0  0  0  0
   -2.3510   -3.6300    0.0000 C   0  0  0  0  0  0  0  0  0  0  0  0
   -1.0519   -2.8800    0.0000 N   0  0  0  0  0  0  0  0  0  0  0  0
    0.2471   -3.6300    0.0000 C   0  0  0  0  0  0  0  0  0  0  0  0
    0.2471   -5.1300    0.0000 C   0  0  0  0  0  0  0  0  0  0  0  0
    1.5460   -5.8800    0.0000 C   0  0  0  0  0  0  0  0  0  0  0  0
    2.8451   -5.1300    0.0000 C   0  0  0  0  0  0  0  0  0  0  0  0
    2.8451   -3.6300    0.0000 C   0  0  0  0  0  0  0  0  0  0  0  0
    1.5460   -2.8800    0.0000 C   0  0  0  0  0  0  0  0  0  0  0  0
    4.1441   -2.8800    0.0000 C   0  0  0  0  0  0  0  0  0  0  0  0
    3.3942   -1.5809    0.0000 F   0  0  0  0  0  0  0  0  0  0  0  0
    4.8942   -4.1790    0.0000 F   0  0  0  0  0  0  0  0  0  0  0  0
    5.4432   -2.1300    0.0000 F   0  0  0  0  0  0  0  0  0  0  0  0
  1  2  1  0  0  0  0
  2  3  2  0  0  0  0
  2  4  1  0  0  0  0
  5  4  2  0  0  0  0
  4  9  1  0  0  0  0
  6  5  1  0  0  0  0
  7  6  2  0  0  0  0
  8  7  1  0  0  0  0
  9  8  2  0  0  0  0
  9 10  1  0  0  0  0
 10 11  1  0  0  0  0
 12 11  2  0  0  0  0
 11 16  1  0  0  0  0
 13 12  1  0  0  0  0
 14 13  2  0  0  0  0
 15 14  1  0  0  0  0
 16 15  2  0  0  0  0
 15 17  1  0  0  0  0
 17 18  1  0  0  0  0
 17 19  1  0  0  0  0
 17 20  1  0  0  0  0
M  END
> <Inchi_key>
JZFPYUNJRRFVQU-UHFFFAOYSA-N

> <Source>
Mulliner

> <ID>
HT1490

> <H_MFHB>
0

> <CAS>


> <Cholestasis>


> <Name>
niflumic acid

> <Class>
0

$$$$