
  -INDIGO-08031710012D

 26 29  0  0  0  0  0  0  0  0999 V2000
    2.5375   -2.7486    0.0000 O   0  0  0  0  0  0  0  0  0  0  0  0
    2.5209   -1.2487    0.0000 C   0  0  0  0  0  0  0  0  0  0  0  0
    1.2139   -0.5130    0.0000 C   0  0  0  0  0  0  0  0  0  0  0  0
    1.1973    0.9868    0.0000 C   0  0  0  0  0  0  0  0  0  0  0  0
   -0.2829    1.2309    0.0000 C   0  0  0  0  0  0  0  0  0  0  0  0
   -0.8114    2.6347    0.0000 C   0  0  0  0  0  0  0  0  0  0  0  0
    0.1400    3.7943    0.0000 C   0  0  0  0  0  0  0  0  0  0  0  0
    1.6200    3.5502    0.0000 C   0  0  0  0  0  0  0  0  0  0  0  0
    2.1485    2.1464    0.0000 C   0  0  0  0  0  0  0  0  0  0  0  0
   -0.0769   -1.2775    0.0000 C   0  0  0  0  0  0  0  0  0  0  0  0
   -1.3842   -0.5419    0.0000 C   0  0  0  0  0  0  0  0  0  0  0  0
   -2.6748   -1.3063    0.0000 C   0  0  0  0  0  0  0  0  0  0  0  0
   -2.6582   -2.8061    0.0000 C   0  0  0  0  0  0  0  0  0  0  0  0
   -1.3510   -3.5417    0.0000 C   0  0  0  0  0  0  0  0  0  0  0  0
   -0.0603   -2.7774    0.0000 C   0  0  0  0  0  0  0  0  0  0  0  0
    3.8117   -0.4844    0.0000 C   0  0  0  0  0  0  0  0  0  0  0  0
    4.9022   -1.5144    0.0000 C   0  0  0  0  0  0  0  0  0  0  0  0
    4.7099   -3.0020    0.0000 O   0  0  0  0  0  0  0  0  0  0  0  0
    6.2187   -0.7956    0.0000 C   0  0  0  0  0  0  0  0  0  0  0  0
    7.6339   -1.2930    0.0000 C   0  0  0  0  0  0  0  0  0  0  0  0
    8.7722   -0.3161    0.0000 C   0  0  0  0  0  0  0  0  0  0  0  0
    8.4953    1.1581    0.0000 C   0  0  0  0  0  0  0  0  0  0  0  0
    7.0802    1.6555    0.0000 C   0  0  0  0  0  0  0  0  0  0  0  0
    5.9418    0.6787    0.0000 C   0  0  0  0  0  0  0  0  0  0  0  0
    4.4544    0.8710    0.0000 C   0  0  0  0  0  0  0  0  0  0  0  0
    4.2290    2.3540    0.0000 O   0  0  0  0  0  0  0  0  0  0  0  0
  1  2  2  0  0  0  0
  2  3  1  0  0  0  0
  2 16  1  0  0  0  0
  3  4  1  0  0  0  0
  3 10  1  0  0  0  0
  5  4  2  0  0  0  0
  4  9  1  0  0  0  0
  6  5  1  0  0  0  0
  7  6  2  0  0  0  0
  8  7  1  0  0  0  0
  9  8  2  0  0  0  0
 11 10  2  0  0  0  0
 10 15  1  0  0  0  0
 12 11  1  0  0  0  0
 13 12  2  0  0  0  0
 14 13  1  0  0  0  0
 15 14  2  0  0  0  0
 17 16  1  0  0  0  0
 16 25  1  0  0  0  0
 17 18  2  0  0  0  0
 19 17  1  0  0  0  0
 20 19  1  0  0  0  0
 19 24  2  0  0  0  0
 21 20  2  0  0  0  0
 22 21  1  0  0  0  0
 23 22  2  0  0  0  0
 24 23  1  0  0  0  0
 25 24  1  0  0  0  0
 25 26  2  0  0  0  0
M  END
> <Inchi_key>
JYGLAHSAISAEAL-UHFFFAOYSA-N

> <Source>
Mulliner

> <ID>
HT0686

> <H_MFHB>
0

> <CAS>


> <Cholestasis>


> <Name>
diphenadione

> <Class>
0

$$$$