

  -INDIGO-08031710012D

 31 31  0  0  0  0  0  0  0  0999 V2000
   12.6705   -5.5725    0.0000 O   0  0  0  0  0  0  0  0  0  0  0  0
   11.3716   -6.3225    0.0000 C   0  0  0  0  0  0  0  0  0  0  0  0
   10.0724   -5.5725    0.0000 C   0  0  0  0  0  0  0  0  0  0  0  0
   10.0724   -4.0725    0.0000 O   0  0  0  0  0  0  0  0  0  0  0  0
    8.7733   -6.3225    0.0000 C   0  0  0  0  0  0  0  0  0  0  0  0
    8.7733   -7.8225    0.0000 C   0  0  0  0  0  0  0  0  0  0  0  0
   10.0724   -8.5725    0.0000 O   0  0  0  0  0  0  0  0  0  0  0  0
    7.4744   -5.5725    0.0000 N   0  0  0  0  0  0  0  0  0  0  0  0
    6.1754   -6.3225    0.0000 C   0  0  0  0  0  0  0  0  0  0  0  0
    4.8763   -5.5725    0.0000 C   0  0  0  0  0  0  0  0  0  0  0  0
    3.5774   -6.3225    0.0000 N   0  0  0  0  0  0  0  0  0  0  0  0
    3.5774   -7.8225    0.0000 C   0  0  0  0  0  0  0  0  0  0  0  0
    2.2783   -8.5725    0.0000 C   0  0  0  0  0  0  0  0  0  0  0  0
    0.9791   -7.8225    0.0000 O   0  0  0  0  0  0  0  0  0  0  0  0
    2.2783  -10.0725    0.0000 O   0  0  0  0  0  0  0  0  0  0  0  0
    2.2783   -5.5725    0.0000 C   0  0  0  0  0  0  0  0  0  0  0  0
    2.2783   -4.0725    0.0000 C   0  0  0  0  0  0  0  0  0  0  0  0
    3.5774   -3.3223    0.0000 N   0  0  0  0  0  0  0  0  0  0  0  0
    2.2783   -2.5723    0.0000 C   0  0  0  0  0  0  0  0  0  0  0  0
    0.9793   -3.3223    0.0000 C   0  0  0  0  0  0  0  0  0  0  0  0
    0.9793   -4.8223    0.0000 O   0  0  0  0  0  0  0  0  0  0  0  0
   -0.3198   -2.5723    0.0000 O   0  0  0  0  0  0  0  0  0  0  0  0
    3.5774   -1.8225    0.0000 C   0  0  0  0  0  0  0  0  0  0  0  0
    4.8763   -1.0725    0.0000 C   0  0  0  0  0  0  0  0  0  0  0  0
    6.1753   -1.8225    0.0000 N   0  0  0  0  0  0  0  0  0  0  0  0
    7.4744   -1.0725    0.0000 C   0  0  0  0  0  0  0  0  0  0  0  0
    7.4744    0.4275    0.0000 C   0  0  0  0  0  0  0  0  0  0  0  0
    8.7733    1.1775    0.0000 O   0  0  0  0  0  0  0  0  0  0  0  0
    6.1753    1.1775    0.0000 O   0  0  0  0  0  0  0  0  0  0  0  0
    6.1753   -3.3225    0.0000 C   0  0  0  0  0  0  0  0  0  0  0  0
    7.4744   -4.0725    0.0000 C   0  0  0  0  0  0  0  0  0  0  0  0
  1  2  1  0  0  0  0
  2  3  1  0  0  0  0
  3  4  1  0  0  0  0
  3  5  1  0  0  0  0
  5  6  1  0  0  0  0
  5  8  1  0  0  0  0
  6  7  1  0  0  0  0
  9  8  1  0  0  0  0
  8 31  1  0  0  0  0
 10  9  1  0  0  0  0
 11 10  1  0  0  0  0
 11 12  1  0  0  0  0
 16 11  1  0  0  0  0
 12 13  1  0  0  0  0
 13 14  2  0  0  0  0
 13 15  1  0  0  0  0
 17 16  1  0  0  0  0
 18 17  1  0  0  0  0
 18 19  1  0  0  0  0
 23 18  1  0  0  0  0
 19 20  1  0  0  0  0
 20 21  2  0  0  0  0
 20 22  1  0  0  0  0
 24 23  1  0  0  0  0
 25 24  1  0  0  0  0
 25 26  1  0  0  0  0
 30 25  1  0  0  0  0
 26 27  1  0  0  0  0
 27 28  2  0  0  0  0
 27 29  1  0  0  0  0
 31 30  1  0  0  0  0
M  END
> <Inchi_key>
JZNZSKXIEDHOBD-UHFFFAOYSA-N

> <Source>
Mulliner

> <ID>
HT0951

> <H_MFHB>
0

> <CAS>


> <Cholestasis>


> <Name>
gadobutrol

> <Class>
0


$$$$