

  -INDIGO-08031710012D

  8  7  0  0  0  0  0  0  0  0999 V2000
    2.3254    1.0178    0.0000 N   0  0  0  0  0  0  0  0  0  0  0  0
    1.5754   -0.2813    0.0000 C   0  0  0  0  0  0  0  0  0  0  0  0
    2.8744   -1.0312    0.0000 C   0  0  0  0  0  0  0  0  0  0  0  0
    4.1734   -0.2812    0.0000 O   0  0  0  0  0  0  0  0  0  0  0  0
    0.2763    0.4687    0.0000 C   0  0  0  0  0  0  0  0  0  0  0  0
    0.2763    1.9688    0.0000 O   0  0  0  0  0  0  0  0  0  0  0  0
    0.8254   -1.5803    0.0000 C   0  0  0  0  0  0  0  0  0  0  0  0
   -0.6746   -1.5803    0.0000 O   0  0  0  0  0  0  0  0  0  0  0  0
  1  2  1  0  0  0  0
  2  3  1  0  0  0  0
  2  5  1  0  0  0  0
  2  7  1  0  0  0  0
  3  4  1  0  0  0  0
  5  6  1  0  0  0  0
  7  8  1  0  0  0  0
M  END
> <Inchi_key>
LENZDBCJOHFCAS-UHFFFAOYSA-N

> <Source>
Mulliner , Kotsampasakou

> <ID>
EK0557;HT2138

> <H_MFHB>
0

> <CAS>


> <Cholestasis>
0

> <Name>
tromethamine

> <Class>
0


$$$$