
  -INDIGO-08031710012D

 32 37  0  0  0  0  0  0  0  0999 V2000
    9.9694   -5.9546    0.0000 C   0  0  0  0  0  0  0  0  0  0  0  0
    9.2582   -4.6339    0.0000 C   0  0  0  0  0  0  0  0  0  0  0  0
   10.0463   -3.3577    0.0000 C   0  0  0  0  0  0  0  0  0  0  0  0
   10.7413   -4.6870    0.0000 C   0  0  0  0  0  0  0  0  0  0  0  0
   11.3880   -2.6872    0.0000 C   0  0  0  0  0  0  0  0  0  0  0  0
   12.6397   -3.5140    0.0000 O   0  0  0  0  0  0  0  0  0  0  0  0
   11.4783   -1.1899    0.0000 O   0  0  0  0  0  0  0  0  0  0  0  0
   10.2269   -0.3631    0.0000 C   0  0  0  0  0  0  0  0  0  0  0  0
    8.8849   -1.0335    0.0000 C   0  0  0  0  0  0  0  0  0  0  0  0
    8.7949   -2.5309    0.0000 C   0  0  0  0  0  0  0  0  0  0  0  0
    7.4530   -3.2013    0.0000 C   0  0  0  0  0  0  0  0  0  0  0  0
    6.2015   -2.3746    0.0000 C   0  0  0  0  0  0  0  0  0  0  0  0
    6.2915   -0.8774    0.0000 N   0  0  0  0  0  0  0  0  0  0  0  0
    4.8956   -0.3288    0.0000 C   0  0  0  0  0  0  0  0  0  0  0  0
    3.9434   -1.4899    0.0000 C   0  0  0  0  0  0  0  0  0  0  0  0
    4.7502   -2.7513    0.0000 C   0  0  0  0  0  0  0  0  0  0  0  0
    4.0632   -4.0847    0.0000 N   0  0  0  0  0  0  0  0  0  0  0  0
    2.5701   -4.1590    0.0000 C   0  0  0  0  0  0  0  0  0  0  0  0
    1.8807   -5.4925    0.0000 C   0  0  0  0  0  0  0  0  0  0  0  0
    0.3796   -5.5645    0.0000 C   0  0  0  0  0  0  0  0  0  0  0  0
   -0.3072   -6.8980    0.0000 F   0  0  0  0  0  0  0  0  0  0  0  0
   -0.4319   -4.2999    0.0000 C   0  0  0  0  0  0  0  0  0  0  0  0
   -1.9301   -4.3719    0.0000 C   0  0  0  0  0  0  0  0  0  0  0  0
    0.2549   -2.9665    0.0000 C   0  0  0  0  0  0  0  0  0  0  0  0
   -0.5519   -1.7060    0.0000 C   0  0  0  0  0  0  0  0  0  0  0  0
    0.1346   -0.3726    0.0000 C   0  0  0  0  0  0  0  0  0  0  0  0
    1.6295   -0.2982    0.0000 C   0  0  0  0  0  0  0  0  0  0  0  0
    2.3151    1.0360    0.0000 N   0  0  0  0  0  0  0  0  0  0  0  0
    2.4425   -1.5619    0.0000 C   0  0  0  0  0  0  0  0  0  0  0  0
    1.7562   -2.8944    0.0000 C   0  0  0  0  0  0  0  0  0  0  0  0
    7.6335   -0.2068    0.0000 C   0  0  0  0  0  0  0  0  0  0  0  0
    7.7237    1.2905    0.0000 O   0  0  0  0  0  0  0  0  0  0  0  0
  1  2  1  0  0  0  0
  2  3  1  0  0  0  0
  3  4  1  0  0  0  0
  5  3  1  0  0  0  0
  3 10  1  0  0  0  0
  5  6  2  0  0  0  0
  7  5  1  0  0  0  0
  8  7  1  0  0  0  0
  9  8  1  0  0  0  0
  9 10  2  0  0  0  0
 31  9  1  0  0  0  0
 10 11  1  0  0  0  0
 11 12  2  0  0  0  0
 13 12  1  0  0  0  0
 12 16  1  0  0  0  0
 14 13  1  0  0  0  0
 13 31  1  0  0  0  0
 15 14  1  0  0  0  0
 15 16  2  0  0  0  0
 29 15  1  0  0  0  0
 16 17  1  0  0  0  0
 17 18  2  0  0  0  0
 19 18  1  0  0  0  0
 18 30  1  0  0  0  0
 20 19  2  0  0  0  0
 20 21  1  0  0  0  0
 22 20  1  0  0  0  0
 22 23  1  0  0  0  0
 24 22  2  0  0  0  0
 25 24  1  0  0  0  0
 24 30  1  0  0  0  0
 26 25  1  0  0  0  0
 27 26  1  0  0  0  0
 27 28  1  0  0  0  0
 29 27  1  0  0  0  0
 30 29  2  0  0  0  0
 31 32  2  0  0  0  0
M  END
> <Inchi_key>
LKSFKCFPNZHQSS-UHFFFAOYSA-N

> <Source>
Mulliner

> <ID>
HT0839

> <H_MFHB>
0

> <CAS>


> <Cholestasis>


> <Name>
exatecan

> <Class>
0

$$$$