
  -INDIGO-08031710012D

 10 11  0  0  0  0  0  0  0  0999 V2000
    6.2662    1.6790    0.0000 O   0  0  0  0  0  0  0  0  0  0  0  0
    4.9671    0.9290    0.0000 C   0  0  0  0  0  0  0  0  0  0  0  0
    4.8103   -0.5628    0.0000 C   0  0  0  0  0  0  0  0  0  0  0  0
    3.3431   -0.8746    0.0000 O   0  0  0  0  0  0  0  0  0  0  0  0
    2.5931    0.4244    0.0000 C   0  0  0  0  0  0  0  0  0  0  0  0
    1.2228    1.0345    0.0000 C   0  0  0  0  0  0  0  0  0  0  0  0
   -0.0762    0.2845    0.0000 O   0  0  0  0  0  0  0  0  0  0  0  0
    1.3796    2.5263    0.0000 C   0  0  0  0  0  0  0  0  0  0  0  0
    2.8468    2.8382    0.0000 O   0  0  0  0  0  0  0  0  0  0  0  0
    3.5968    1.5391    0.0000 C   0  0  0  0  0  0  0  0  0  0  0  0
  1  2  1  0  0  0  0
  3  2  1  0  0  0  0
  2 10  1  0  0  0  0
  4  3  1  0  0  0  0
  5  4  1  0  0  0  0
  6  5  1  0  0  0  0
  5 10  1  0  0  0  0
  6  7  1  0  0  0  0
  8  6  1  0  0  0  0
  9  8  1  0  0  0  0
 10  9  1  0  0  0  0
M  END
> <Inchi_key>
KLDXJTOLSGUMSJ-UHFFFAOYSA-N

> <Source>
Mulliner

> <ID>
HT1138

> <H_MFHB>
0

> <CAS>


> <Cholestasis>


> <Name>
isosorbide

> <Class>
0

$$$$