

  -INDIGO-08031710012D

 46 49  0  0  0  0  0  0  0  0999 V2000
   28.8268   16.6432    0.0000 C   0  0  0  0  0  0  0  0  0  0  0  0
   28.0767   15.3441    0.0000 C   0  0  0  0  0  0  0  0  0  0  0  0
   26.5769   15.3441    0.0000 C   0  0  0  0  0  0  0  0  0  0  0  0
   25.8268   14.0451    0.0000 C   0  0  0  0  0  0  0  0  0  0  0  0
   24.3270   14.0451    0.0000 C   0  0  0  0  0  0  0  0  0  0  0  0
   23.5768   12.7461    0.0000 C   0  0  0  0  0  0  0  0  0  0  0  0
   22.0766   12.7461    0.0000 O   0  0  0  0  0  0  0  0  0  0  0  0
   21.3269   11.4471    0.0000 C   0  0  0  0  0  0  0  0  0  0  0  0
   22.0766   10.1480    0.0000 O   0  0  0  0  0  0  0  0  0  0  0  0
   19.8267   11.4471    0.0000 N   0  0  0  0  0  0  0  0  0  0  0  0
   19.0770   12.7461    0.0000 C   0  0  0  0  0  0  0  0  0  0  0  0
   19.8267   14.0451    0.0000 N   0  0  0  0  0  0  0  0  0  0  0  0
   17.5767   12.7461    0.0000 C   0  0  0  0  0  0  0  0  0  0  0  0
   16.8266   11.4471    0.0000 C   0  0  0  0  0  0  0  0  0  0  0  0
   15.3268   11.4471    0.0000 C   0  0  0  0  0  0  0  0  0  0  0  0
   14.5767   12.7461    0.0000 C   0  0  0  0  0  0  0  0  0  0  0  0
   13.0769   12.7461    0.0000 N   0  0  0  0  0  0  0  0  0  0  0  0
   12.3268   14.0451    0.0000 C   0  0  0  0  0  0  0  0  0  0  0  0
   10.8270   14.0451    0.0000 C   0  0  0  0  0  0  0  0  0  0  0  0
    9.9450   12.8316    0.0000 N   0  0  0  0  0  0  0  0  0  0  0  0
    8.5187   13.2951    0.0000 C   0  0  0  0  0  0  0  0  0  0  0  0
    7.2195   12.5451    0.0000 C   0  0  0  0  0  0  0  0  0  0  0  0
    5.9207   13.2951    0.0000 C   0  0  0  0  0  0  0  0  0  0  0  0
    5.9207   14.7950    0.0000 C   0  0  0  0  0  0  0  0  0  0  0  0
    7.2195   15.5452    0.0000 C   0  0  0  0  0  0  0  0  0  0  0  0
    8.5187   14.7950    0.0000 C   0  0  0  0  0  0  0  0  0  0  0  0
    9.9450   15.2587    0.0000 N   0  0  0  0  0  0  0  0  0  0  0  0
   10.4089   16.6852    0.0000 C   0  0  0  0  0  0  0  0  0  0  0  0
    4.6214   12.5451    0.0000 C   0  0  0  0  0  0  0  0  0  0  0  0
    4.6214   11.0451    0.0000 O   0  0  0  0  0  0  0  0  0  0  0  0
    3.3226   13.2951    0.0000 N   0  0  0  0  0  0  0  0  0  0  0  0
    3.3226   14.7950    0.0000 C   0  0  0  0  0  0  0  0  0  0  0  0
    2.0234   15.5452    0.0000 C   0  0  0  0  0  0  0  0  0  0  0  0
    2.0234   17.0451    0.0000 C   0  0  0  0  0  0  0  0  0  0  0  0
    3.3226   17.7951    0.0000 O   0  0  0  0  0  0  0  0  0  0  0  0
    0.7241   17.7951    0.0000 O   0  0  0  0  0  0  0  0  0  0  0  0
    0.7241   19.2951    0.0000 C   0  0  0  0  0  0  0  0  0  0  0  0
   -0.5747   20.0451    0.0000 C   0  0  0  0  0  0  0  0  0  0  0  0
    2.0234   12.5451    0.0000 C   0  0  0  0  0  0  0  0  0  0  0  0
    0.7241   13.2951    0.0000 C   0  0  0  0  0  0  0  0  0  0  0  0
   -0.5747   12.5451    0.0000 C   0  0  0  0  0  0  0  0  0  0  0  0
   -0.5747   11.0451    0.0000 C   0  0  0  0  0  0  0  0  0  0  0  0
    0.7241   10.2951    0.0000 C   0  0  0  0  0  0  0  0  0  0  0  0
    2.0234   11.0451    0.0000 N   0  0  0  0  0  0  0  0  0  0  0  0
   15.3268   14.0451    0.0000 C   0  0  0  0  0  0  0  0  0  0  0  0
   16.8266   14.0451    0.0000 C   0  0  0  0  0  0  0  0  0  0  0  0
  1  2  1  0  0  0  0
  2  3  1  0  0  0  0
  3  4  1  0  0  0  0
  4  5  1  0  0  0  0
  5  6  1  0  0  0  0
  6  7  1  0  0  0  0
  7  8  1  0  0  0  0
  8  9  2  0  0  0  0
  8 10  1  0  0  0  0
 10 11  1  0  0  0  0
 11 12  2  0  0  0  0
 11 13  1  0  0  0  0
 14 13  2  0  0  0  0
 13 46  1  0  0  0  0
 15 14  1  0  0  0  0
 16 15  2  0  0  0  0
 16 17  1  0  0  0  0
 45 16  1  0  0  0  0
 17 18  1  0  0  0  0
 18 19  1  0  0  0  0
 20 19  2  0  0  0  0
 19 27  1  0  0  0  0
 21 20  1  0  0  0  0
 22 21  2  0  0  0  0
 21 26  1  0  0  0  0
 23 22  1  0  0  0  0
 24 23  2  0  0  0  0
 23 29  1  0  0  0  0
 25 24  1  0  0  0  0
 26 25  2  0  0  0  0
 27 26  1  0  0  0  0
 27 28  1  0  0  0  0
 29 30  2  0  0  0  0
 29 31  1  0  0  0  0
 31 32  1  0  0  0  0
 31 39  1  0  0  0  0
 32 33  1  0  0  0  0
 33 34  1  0  0  0  0
 34 35  2  0  0  0  0
 34 36  1  0  0  0  0
 36 37  1  0  0  0  0
 37 38  1  0  0  0  0
 40 39  2  0  0  0  0
 39 44  1  0  0  0  0
 41 40  1  0  0  0  0
 42 41  2  0  0  0  0
 43 42  1  0  0  0  0
 44 43  2  0  0  0  0
 46 45  2  0  0  0  0
M  END
> <Inchi_key>
KSGXQBZTULBEEQ-UHFFFAOYSA-N

> <Source>
Mulliner

> <ID>
HT0580

> <H_MFHB>
0

> <CAS>


> <Cholestasis>


> <Name>
dabigatran etexilate mesylate

> <Class>
0


$$$$