
  -INDIGO-08031710012D

 24 27  0  0  0  0  0  0  0  0999 V2000
   11.5060   -1.0705    0.0000 O   0  0  0  0  0  0  0  0  0  0  0  0
   10.0318   -0.7937    0.0000 C   0  0  0  0  0  0  0  0  0  0  0  0
    9.0550   -1.9321    0.0000 C   0  0  0  0  0  0  0  0  0  0  0  0
    7.5808   -1.6555    0.0000 C   0  0  0  0  0  0  0  0  0  0  0  0
    7.0833   -0.2404    0.0000 C   0  0  0  0  0  0  0  0  0  0  0  0
    8.0600    0.8981    0.0000 C   0  0  0  0  0  0  0  0  0  0  0  0
    9.5343    0.6214    0.0000 C   0  0  0  0  0  0  0  0  0  0  0  0
    5.5833   -0.2238    0.0000 C   0  0  0  0  0  0  0  0  0  0  0  0
    6.0060   -1.6631    0.0000 O   0  0  0  0  0  0  0  0  0  0  0  0
    4.7679   -2.5097    0.0000 C   0  0  0  0  0  0  0  0  0  0  0  0
    4.7254   -4.0092    0.0000 O   0  0  0  0  0  0  0  0  0  0  0  0
    3.5800   -1.5941    0.0000 C   0  0  0  0  0  0  0  0  0  0  0  0
    2.1045   -1.8640    0.0000 C   0  0  0  0  0  0  0  0  0  0  0  0
    1.1330   -0.7212    0.0000 C   0  0  0  0  0  0  0  0  0  0  0  0
    1.6370    0.6917    0.0000 C   0  0  0  0  0  0  0  0  0  0  0  0
    3.1125    0.9618    0.0000 C   0  0  0  0  0  0  0  0  0  0  0  0
    4.0840   -0.1812    0.0000 C   0  0  0  0  0  0  0  0  0  0  0  0
    5.8083    1.2592    0.0000 C   0  0  0  0  0  0  0  0  0  0  0  0
    7.0891    2.0400    0.0000 C   0  0  0  0  0  0  0  0  0  0  0  0
    7.0534    3.5396    0.0000 C   0  0  0  0  0  0  0  0  0  0  0  0
    5.7366    4.2583    0.0000 C   0  0  0  0  0  0  0  0  0  0  0  0
    5.7009    5.7579    0.0000 O   0  0  0  0  0  0  0  0  0  0  0  0
    4.4560    3.4775    0.0000 C   0  0  0  0  0  0  0  0  0  0  0  0
    4.4917    1.9779    0.0000 C   0  0  0  0  0  0  0  0  0  0  0  0
  1  2  1  0  0  0  0
  3  2  2  0  0  0  0
  2  7  1  0  0  0  0
  4  3  1  0  0  0  0
  5  4  2  0  0  0  0
  6  5  1  0  0  0  0
  5  8  1  0  0  0  0
  7  6  2  0  0  0  0
  9  8  1  0  0  0  0
  8 17  1  0  0  0  0
  8 18  1  0  0  0  0
 10  9  1  0  0  0  0
 10 11  2  0  0  0  0
 12 10  1  0  0  0  0
 13 12  1  0  0  0  0
 12 17  2  0  0  0  0
 14 13  2  0  0  0  0
 15 14  1  0  0  0  0
 16 15  2  0  0  0  0
 17 16  1  0  0  0  0
 19 18  2  0  0  0  0
 18 24  1  0  0  0  0
 20 19  1  0  0  0  0
 21 20  2  0  0  0  0
 21 22  1  0  0  0  0
 23 21  1  0  0  0  0
 24 23  2  0  0  0  0
M  END
> <Inchi_key>
KJFMBFZCATUALV-UHFFFAOYSA-N

> <Source>
Mulliner

> <ID>
HT1652

> <H_MFHB>
0

> <CAS>
9/8/1977

> <Cholestasis>


> <Name>
phenolphthalein

> <Class>
0

$$$$