

  -INDIGO-08031710012D

 14 13  0  0  0  0  0  0  0  0999 V2000
   -1.3727    1.3726    0.0000 N   0  0  0  0  0  0  0  0  0  0  0  0
   -1.3727    2.8726    0.0000 C   0  0  0  0  0  0  0  0  0  0  0  0
   -0.0736    3.6226    0.0000 C   0  0  0  0  0  0  0  0  0  0  0  0
    1.2255    2.8726    0.0000 S   0  0  0  0  0  0  0  0  0  0  0  0
    2.5245    3.6226    0.0000 S   0  0  0  0  0  0  0  0  0  0  0  0
    3.8236    2.8726    0.0000 C   0  0  0  0  0  0  0  0  0  0  0  0
    5.1227    3.6226    0.0000 C   0  0  0  0  0  0  0  0  0  0  0  0
    5.1227    5.1226    0.0000 N   0  0  0  0  0  0  0  0  0  0  0  0
    6.4216    2.8726    0.0000 C   0  0  0  0  0  0  0  0  0  0  0  0
    6.4216    1.3726    0.0000 O   0  0  0  0  0  0  0  0  0  0  0  0
    7.7207    3.6226    0.0000 O   0  0  0  0  0  0  0  0  0  0  0  0
   -2.6716    3.6226    0.0000 C   0  0  0  0  0  0  0  0  0  0  0  0
   -3.9707    2.8726    0.0000 O   0  0  0  0  0  0  0  0  0  0  0  0
   -2.6716    5.1226    0.0000 O   0  0  0  0  0  0  0  0  0  0  0  0
  1  2  1  0  0  0  0
  2  3  1  0  0  0  0
  2 12  1  0  0  0  0
  3  4  1  0  0  0  0
  4  5  1  0  0  0  0
  5  6  1  0  0  0  0
  6  7  1  0  0  0  0
  7  8  1  0  0  0  0
  7  9  1  0  0  0  0
  9 10  2  0  0  0  0
  9 11  1  0  0  0  0
 12 13  2  0  0  0  0
 12 14  1  0  0  0  0
M  END
> <Inchi_key>
LEVWYRKDKASIDU-UHFFFAOYSA-N

> <Source>
Mulliner

> <ID>
HT1181

> <H_MFHB>
0

> <CAS>


> <Cholestasis>


> <Name>
l-cystine

> <Class>
0


$$$$