

  -INDIGO-08031710012D

 12 12  0  0  0  0  0  0  0  0999 V2000
   -0.7868    1.3627    0.0000 O   0  0  0  0  0  0  0  0  0  0  0  0
   -0.0368    2.6618    0.0000 C   0  0  0  0  0  0  0  0  0  0  0  0
    1.4632    2.6618    0.0000 C   0  0  0  0  0  0  0  0  0  0  0  0
    0.7132    3.9608    0.0000 O   0  0  0  0  0  0  0  0  0  0  0  0
    1.4632    1.1618    0.0000 O   0  0  0  0  0  0  0  0  0  0  0  0
    2.7623    0.4118    0.0000 C   0  0  0  0  0  0  0  0  0  0  0  0
    4.0613    1.1618    0.0000 C   0  0  0  0  0  0  0  0  0  0  0  0
    5.3603    0.4118    0.0000 O   0  0  0  0  0  0  0  0  0  0  0  0
    4.0613    2.6618    0.0000 C   0  0  0  0  0  0  0  0  0  0  0  0
    5.3603    3.4118    0.0000 O   0  0  0  0  0  0  0  0  0  0  0  0
    2.7623    3.4118    0.0000 C   0  0  0  0  0  0  0  0  0  0  0  0
    2.7623    4.9118    0.0000 O   0  0  0  0  0  0  0  0  0  0  0  0
  1  2  1  0  0  0  0
  2  3  1  0  0  0  0
  3  4  1  0  0  0  0
  5  3  1  0  0  0  0
  3 11  1  0  0  0  0
  6  5  1  0  0  0  0
  7  6  1  0  0  0  0
  7  8  1  0  0  0  0
  9  7  1  0  0  0  0
  9 10  1  0  0  0  0
 11  9  1  0  0  0  0
 11 12  1  0  0  0  0
M  END
> <Inchi_key>
LKDRXBCSQODPBY-UHFFFAOYSA-N

> <Source>
Mulliner

> <ID>
HT2773

> <H_MFHB>
0

> <CAS>


> <Cholestasis>


> <Name>


> <Class>
0


$$$$