

  -INDIGO-08031710012D

 17 17  0  0  0  0  0  0  0  0999 V2000
    3.6073    0.5191    0.0000 C   0  0  0  0  0  0  0  0  0  0  0  0
    3.6073    2.0191    0.0000 C   0  0  0  0  0  0  0  0  0  0  0  0
    4.9062    2.7691    0.0000 C   0  0  0  0  0  0  0  0  0  0  0  0
    6.2055    2.0191    0.0000 N   0  0  0  0  0  0  0  0  0  0  0  0
    6.2055    0.5191    0.0000 C   0  0  0  0  0  0  0  0  0  0  0  0
    7.5044    2.7691    0.0000 C   0  0  0  0  0  0  0  0  0  0  0  0
    2.3084    2.7691    0.0000 C   0  0  0  0  0  0  0  0  0  0  0  0
    3.0584    4.0681    0.0000 C   0  0  0  0  0  0  0  0  0  0  0  0
    1.5582    1.4700    0.0000 O   0  0  0  0  0  0  0  0  0  0  0  0
    1.0091    3.5191    0.0000 C   0  0  0  0  0  0  0  0  0  0  0  0
   -0.2898    2.7691    0.0000 C   0  0  0  0  0  0  0  0  0  0  0  0
   -0.2898    1.2691    0.0000 C   0  0  0  0  0  0  0  0  0  0  0  0
   -1.5889    0.5191    0.0000 C   0  0  0  0  0  0  0  0  0  0  0  0
   -2.8880    1.2691    0.0000 C   0  0  0  0  0  0  0  0  0  0  0  0
   -4.1869    0.5191    0.0000 Cl  0  0  0  0  0  0  0  0  0  0  0  0
   -2.8880    2.7691    0.0000 C   0  0  0  0  0  0  0  0  0  0  0  0
   -1.5889    3.5191    0.0000 C   0  0  0  0  0  0  0  0  0  0  0  0
  1  2  1  0  0  0  0
  2  3  1  0  0  0  0
  2  7  1  0  0  0  0
  3  4  1  0  0  0  0
  4  5  1  0  0  0  0
  4  6  1  0  0  0  0
  7  8  1  0  0  0  0
  7  9  1  0  0  0  0
  7 10  1  0  0  0  0
 10 11  1  0  0  0  0
 12 11  2  0  0  0  0
 11 17  1  0  0  0  0
 13 12  1  0  0  0  0
 14 13  2  0  0  0  0
 14 15  1  0  0  0  0
 16 14  1  0  0  0  0
 17 16  2  0  0  0  0
M  END
> <Inchi_key>
KVHHQGIIZCJATJ-UHFFFAOYSA-N

> <Source>
Mulliner

> <ID>
HT3125

> <H_MFHB>
0

> <CAS>


> <Cholestasis>


> <Name>


> <Class>
0


$$$$