

  -INDIGO-08031710012D

 21 22  0  0  0  0  0  0  0  0999 V2000
    0.1959    6.7332    0.0000 C   0  0  0  0  0  0  0  0  0  0  0  0
   -1.1033    5.9832    0.0000 C   0  0  0  0  0  0  0  0  0  0  0  0
   -1.1033    4.4832    0.0000 C   0  0  0  0  0  0  0  0  0  0  0  0
    0.1959    3.7332    0.0000 C   0  0  0  0  0  0  0  0  0  0  0  0
    0.1959    2.2332    0.0000 C   0  0  0  0  0  0  0  0  0  0  0  0
    1.4950    1.4832    0.0000 C   0  0  0  0  0  0  0  0  0  0  0  0
    2.7939    2.2332    0.0000 C   0  0  0  0  0  0  0  0  0  0  0  0
    4.0929    1.4832    0.0000 C   0  0  0  0  0  0  0  0  0  0  0  0
    5.3920    2.2332    0.0000 C   0  0  0  0  0  0  0  0  0  0  0  0
    6.6910    1.4832    0.0000 O   0  0  0  0  0  0  0  0  0  0  0  0
    7.9901    2.2332    0.0000 C   0  0  0  0  0  0  0  0  0  0  0  0
    5.3920    3.7332    0.0000 C   0  0  0  0  0  0  0  0  0  0  0  0
    4.0929    4.4832    0.0000 C   0  0  0  0  0  0  0  0  0  0  0  0
    2.7939    3.7332    0.0000 C   0  0  0  0  0  0  0  0  0  0  0  0
    1.4950    4.4832    0.0000 C   0  0  0  0  0  0  0  0  0  0  0  0
   -2.4022    3.7332    0.0000 C   0  0  0  0  0  0  0  0  0  0  0  0
   -1.6522    2.4342    0.0000 C   0  0  0  0  0  0  0  0  0  0  0  0
   -3.1523    5.0323    0.0000 C   0  0  0  0  0  0  0  0  0  0  0  0
   -3.7014    2.9832    0.0000 C   0  0  0  0  0  0  0  0  0  0  0  0
   -5.0003    3.7332    0.0000 O   0  0  0  0  0  0  0  0  0  0  0  0
   -3.7014    1.4832    0.0000 O   0  0  0  0  0  0  0  0  0  0  0  0
  1  2  1  0  0  0  0
  2  3  1  0  0  0  0
  3  4  1  0  0  0  0
  3 16  1  0  0  0  0
  5  4  2  0  0  0  0
  4 15  1  0  0  0  0
  6  5  1  0  0  0  0
  7  6  2  0  0  0  0
  8  7  1  0  0  0  0
  7 14  1  0  0  0  0
  9  8  2  0  0  0  0
  9 10  1  0  0  0  0
 12  9  1  0  0  0  0
 10 11  1  0  0  0  0
 13 12  2  0  0  0  0
 14 13  1  0  0  0  0
 15 14  2  0  0  0  0
 16 17  1  0  0  0  0
 16 18  1  0  0  0  0
 16 19  1  0  0  0  0
 19 20  2  0  0  0  0
 19 21  1  0  0  0  0
M  END
> <Inchi_key>
KHLJKRBMZVNZOC-UHFFFAOYSA-N

> <Source>
Mulliner

> <ID>
HT3278

> <H_MFHB>
0

> <CAS>


> <Cholestasis>


> <Name>


> <Class>
0


$$$$