

  -INDIGO-08031710012D

 42 43  0  0  0  0  0  0  0  0999 V2000
    5.8000   -3.3488    0.0000 C   0  0  0  0  0  0  0  0  0  0  0  0
    5.0499   -2.0495    0.0000 C   0  0  0  0  0  0  0  0  0  0  0  0
    3.5502   -2.0495    0.0000 C   0  0  0  0  0  0  0  0  0  0  0  0
    2.8002   -3.3488    0.0000 C   0  0  0  0  0  0  0  0  0  0  0  0
    1.3001   -3.3488    0.0000 C   0  0  0  0  0  0  0  0  0  0  0  0
    0.5500   -4.6477    0.0000 C   0  0  0  0  0  0  0  0  0  0  0  0
   -0.9501   -4.6477    0.0000 C   0  0  0  0  0  0  0  0  0  0  0  0
   -1.6997   -5.9467    0.0000 C   0  0  0  0  0  0  0  0  0  0  0  0
   -1.6997   -3.3488    0.0000 C   0  0  0  0  0  0  0  0  0  0  0  0
   -3.1998   -3.3488    0.0000 C   0  0  0  0  0  0  0  0  0  0  0  0
   -3.9499   -4.6477    0.0000 C   0  0  0  0  0  0  0  0  0  0  0  0
   -5.4500   -4.6477    0.0000 C   0  0  0  0  0  0  0  0  0  0  0  0
   -6.2000   -3.3488    0.0000 C   0  0  0  0  0  0  0  0  0  0  0  0
   -6.2000   -5.9467    0.0000 C   0  0  0  0  0  0  0  0  0  0  0  0
   -7.6997   -5.9467    0.0000 C   0  0  0  0  0  0  0  0  0  0  0  0
   -8.4498   -4.6477    0.0000 C   0  0  0  0  0  0  0  0  0  0  0  0
   -9.9499   -4.6477    0.0000 C   0  0  0  0  0  0  0  0  0  0  0  0
  -10.6999   -5.9467    0.0000 C   0  0  0  0  0  0  0  0  0  0  0  0
  -10.6999   -3.3488    0.0000 C   0  0  0  0  0  0  0  0  0  0  0  0
   -9.9499   -2.0495    0.0000 C   0  0  0  0  0  0  0  0  0  0  0  0
  -10.6999   -0.7506    0.0000 O   0  0  0  0  0  0  0  0  0  0  0  0
   -8.4498   -2.0495    0.0000 C   0  0  0  0  0  0  0  0  0  0  0  0
   -7.6997   -3.3488    0.0000 C   0  0  0  0  0  0  0  0  0  0  0  0
   -6.4007   -4.0987    0.0000 C   0  0  0  0  0  0  0  0  0  0  0  0
   -6.4007   -2.5986    0.0000 C   0  0  0  0  0  0  0  0  0  0  0  0
    5.8000   -0.7506    0.0000 C   0  0  0  0  0  0  0  0  0  0  0  0
    7.3001   -0.7506    0.0000 C   0  0  0  0  0  0  0  0  0  0  0  0
    8.0501    0.5484    0.0000 C   0  0  0  0  0  0  0  0  0  0  0  0
    9.5502    0.5484    0.0000 C   0  0  0  0  0  0  0  0  0  0  0  0
   10.3003    1.8475    0.0000 C   0  0  0  0  0  0  0  0  0  0  0  0
   10.3003   -0.7506    0.0000 C   0  0  0  0  0  0  0  0  0  0  0  0
   11.8000   -0.7506    0.0000 C   0  0  0  0  0  0  0  0  0  0  0  0
   12.5500   -2.0495    0.0000 C   0  0  0  0  0  0  0  0  0  0  0  0
   11.8000   -3.3488    0.0000 C   0  0  0  0  0  0  0  0  0  0  0  0
   12.5500   -4.6477    0.0000 C   0  0  0  0  0  0  0  0  0  0  0  0
   14.0501   -4.6477    0.0000 C   0  0  0  0  0  0  0  0  0  0  0  0
   14.8002   -5.9467    0.0000 O   0  0  0  0  0  0  0  0  0  0  0  0
   14.8002   -3.3488    0.0000 C   0  0  0  0  0  0  0  0  0  0  0  0
   14.0501   -2.0495    0.0000 C   0  0  0  0  0  0  0  0  0  0  0  0
   14.0501   -0.5496    0.0000 C   0  0  0  0  0  0  0  0  0  0  0  0
   15.3491   -1.2996    0.0000 C   0  0  0  0  0  0  0  0  0  0  0  0
   10.3003   -3.3488    0.0000 C   0  0  0  0  0  0  0  0  0  0  0  0
  1  2  1  0  0  0  0
  2  3  2  0  0  0  0
  2 26  1  0  0  0  0
  3  4  1  0  0  0  0
  4  5  2  0  0  0  0
  5  6  1  0  0  0  0
  6  7  2  0  0  0  0
  7  8  1  0  0  0  0
  7  9  1  0  0  0  0
  9 10  2  0  0  0  0
 10 11  1  0  0  0  0
 11 12  2  0  0  0  0
 12 13  1  0  0  0  0
 12 14  1  0  0  0  0
 14 15  2  0  0  0  0
 15 16  1  0  0  0  0
 17 16  2  0  0  0  0
 16 23  1  0  0  0  0
 17 18  1  0  0  0  0
 19 17  1  0  0  0  0
 20 19  1  0  0  0  0
 20 21  1  0  0  0  0
 22 20  1  0  0  0  0
 23 22  1  0  0  0  0
 23 24  1  0  0  0  0
 23 25  1  0  0  0  0
 26 27  2  0  0  0  0
 27 28  1  0  0  0  0
 28 29  2  0  0  0  0
 29 30  1  0  0  0  0
 29 31  1  0  0  0  0
 31 32  2  0  0  0  0
 32 33  1  0  0  0  0
 34 33  1  0  0  0  0
 33 39  1  0  0  0  0
 35 34  2  0  0  0  0
 34 42  1  0  0  0  0
 36 35  1  0  0  0  0
 36 37  1  0  0  0  0
 38 36  1  0  0  0  0
 39 38  1  0  0  0  0
 39 40  1  0  0  0  0
 39 41  1  0  0  0  0
M  END
> <Inchi_key>
KBPHJBAIARWVSC-NYGARKSQSA-N

> <Source>
Mulliner

> <ID>
HT2199

> <H_MFHB>
0

> <CAS>


> <Cholestasis>


> <Name>
xanthophyll

> <Class>
0


$$$$