

  -INDIGO-08031710012D

  8  7  0  0  0  0  0  0  0  0999 V2000
   -0.2476   -0.9240    0.0000 O   0  0  0  0  0  0  0  0  0  0  0  0
    1.0514   -1.6740    0.0000 C   0  0  0  0  0  0  0  0  0  0  0  0
    1.0514   -3.1740    0.0000 O   0  0  0  0  0  0  0  0  0  0  0  0
    2.3505   -0.9240    0.0000 C   0  0  0  0  0  0  0  0  0  0  0  0
    3.6495   -1.6740    0.0000 C   0  0  0  0  0  0  0  0  0  0  0  0
    4.9486   -0.9240    0.0000 C   0  0  0  0  0  0  0  0  0  0  0  0
    4.9486    0.5760    0.0000 O   0  0  0  0  0  0  0  0  0  0  0  0
    6.2476   -1.6740    0.0000 O   0  0  0  0  0  0  0  0  0  0  0  0
  1  2  1  0  0  0  0
  2  3  2  0  0  0  0
  2  4  1  0  0  0  0
  4  5  1  0  0  0  0
  5  6  1  0  0  0  0
  6  7  2  0  0  0  0
  6  8  1  0  0  0  0
M  END
> <Inchi_key>
KDYFGRWQOYBRFD-UHFFFAOYSA-N

> <Source>
Mulliner

> <ID>
HT1924

> <H_MFHB>
0

> <CAS>


> <Cholestasis>


> <Name>
succinic acid

> <Class>
0


$$$$