

  -INDIGO-08031710012D

 21 23  0  0  0  0  0  0  0  0999 V2000
   13.5562    2.8909    0.0000 C   0  0  0  0  0  0  0  0  0  0  0  0
   12.8063    4.1899    0.0000 O   0  0  0  0  0  0  0  0  0  0  0  0
   11.3062    4.1899    0.0000 C   0  0  0  0  0  0  0  0  0  0  0  0
   10.5561    2.8909    0.0000 O   0  0  0  0  0  0  0  0  0  0  0  0
   10.5561    5.4890    0.0000 N   0  0  0  0  0  0  0  0  0  0  0  0
    9.0563    5.4890    0.0000 C   0  0  0  0  0  0  0  0  0  0  0  0
    8.1745    6.7025    0.0000 N   0  0  0  0  0  0  0  0  0  0  0  0
    6.7480    6.2390    0.0000 C   0  0  0  0  0  0  0  0  0  0  0  0
    5.4489    6.9890    0.0000 C   0  0  0  0  0  0  0  0  0  0  0  0
    4.1499    6.2390    0.0000 C   0  0  0  0  0  0  0  0  0  0  0  0
    4.1499    4.7390    0.0000 C   0  0  0  0  0  0  0  0  0  0  0  0
    5.4489    3.9890    0.0000 C   0  0  0  0  0  0  0  0  0  0  0  0
    6.7480    4.7390    0.0000 C   0  0  0  0  0  0  0  0  0  0  0  0
    8.1745    4.2755    0.0000 N   0  0  0  0  0  0  0  0  0  0  0  0
    2.8508    6.9890    0.0000 C   0  0  0  0  0  0  0  0  0  0  0  0
    2.8508    8.4890    0.0000 O   0  0  0  0  0  0  0  0  0  0  0  0
    1.5517    6.2390    0.0000 C   0  0  0  0  0  0  0  0  0  0  0  0
    1.3951    4.7472    0.0000 C   0  0  0  0  0  0  0  0  0  0  0  0
   -0.0723    4.4353    0.0000 C   0  0  0  0  0  0  0  0  0  0  0  0
   -0.8222    5.7344    0.0000 C   0  0  0  0  0  0  0  0  0  0  0  0
    0.1813    6.8491    0.0000 S   0  0  0  0  0  0  0  0  0  0  0  0
  1  2  1  0  0  0  0
  2  3  1  0  0  0  0
  3  4  2  0  0  0  0
  3  5  1  0  0  0  0
  5  6  1  0  0  0  0
  7  6  2  0  0  0  0
  6 14  1  0  0  0  0
  8  7  1  0  0  0  0
  9  8  2  0  0  0  0
  8 13  1  0  0  0  0
 10  9  1  0  0  0  0
 11 10  2  0  0  0  0
 10 15  1  0  0  0  0
 12 11  1  0  0  0  0
 13 12  2  0  0  0  0
 14 13  1  0  0  0  0
 15 16  2  0  0  0  0
 15 17  1  0  0  0  0
 18 17  2  0  0  0  0
 17 21  1  0  0  0  0
 19 18  1  0  0  0  0
 20 19  2  0  0  0  0
 21 20  1  0  0  0  0
M  END
> <Inchi_key>
KYRVNWMVYQXFEU-UHFFFAOYSA-N

> <Source>
Mulliner , Kotsampasakou

> <ID>
EK0385;HT1514

> <H_MFHB>
0

> <CAS>


> <Cholestasis>
0

> <Name>
nocodazole

> <Class>
0


$$$$