

  -INDIGO-08031710012D

 12 12  0  0  0  0  0  0  0  0999 V2000
    8.1884    2.5691    0.0000 C   0  0  0  0  0  0  0  0  0  0  0  0
    6.8893    3.3191    0.0000 N   0  0  0  0  0  0  0  0  0  0  0  0
    5.5903    2.5691    0.0000 C   0  0  0  0  0  0  0  0  0  0  0  0
    5.5903    1.0691    0.0000 C   0  0  0  0  0  0  0  0  0  0  0  0
    4.2912    3.3191    0.0000 C   0  0  0  0  0  0  0  0  0  0  0  0
    4.2912    4.8191    0.0000 O   0  0  0  0  0  0  0  0  0  0  0  0
    2.9921    2.5691    0.0000 C   0  0  0  0  0  0  0  0  0  0  0  0
    2.9921    1.0691    0.0000 C   0  0  0  0  0  0  0  0  0  0  0  0
    1.6932    0.3191    0.0000 C   0  0  0  0  0  0  0  0  0  0  0  0
    0.3942    1.0691    0.0000 C   0  0  0  0  0  0  0  0  0  0  0  0
    0.3942    2.5691    0.0000 C   0  0  0  0  0  0  0  0  0  0  0  0
    1.6932    3.3191    0.0000 C   0  0  0  0  0  0  0  0  0  0  0  0
  1  2  1  0  0  0  0
  2  3  1  0  0  0  0
  3  4  1  0  0  0  0
  3  5  1  0  0  0  0
  5  6  1  0  0  0  0
  5  7  1  0  0  0  0
  8  7  2  0  0  0  0
  7 12  1  0  0  0  0
  9  8  1  0  0  0  0
 10  9  2  0  0  0  0
 11 10  1  0  0  0  0
 12 11  2  0  0  0  0
M  END
> <Inchi_key>
KWGRBVOPPLSCSI-UHFFFAOYSA-N

> <Source>
Mulliner , Kotsampasakou

> <ID>
EK0457;HT0767

> <H_MFHB>
0

> <CAS>


> <Cholestasis>
0

> <Name>
ephedrine;pseudoephedrine hydrochloride;pseudoephedrine polistirex;pseudoephedrine sulfate;pseudoephedrine;pseudoephedrine hcl

> <Class>
0


$$$$