

  -INDIGO-08031710012D

 34 37  0  0  0  0  0  0  0  0999 V2000
   -6.8955   14.8965    0.0000 C   0  0  0  0  0  0  0  0  0  0  0  0
   -7.6570   13.6044    0.0000 O   0  0  0  0  0  0  0  0  0  0  0  0
   -6.9190   12.2986    0.0000 C   0  0  0  0  0  0  0  0  0  0  0  0
   -5.4192   12.2849    0.0000 C   0  0  0  0  0  0  0  0  0  0  0  0
   -4.6809   10.9791    0.0000 C   0  0  0  0  0  0  0  0  0  0  0  0
   -3.1959   11.1899    0.0000 C   0  0  0  0  0  0  0  0  0  0  0  0
   -2.1065   10.1589    0.0000 C   0  0  0  0  0  0  0  0  0  0  0  0
   -2.2323    8.6642    0.0000 N   0  0  0  0  0  0  0  0  0  0  0  0
   -0.9402    7.9025    0.0000 C   0  0  0  0  0  0  0  0  0  0  0  0
    0.3656    8.6406    0.0000 C   0  0  0  0  0  0  0  0  0  0  0  0
    1.6577    7.8789    0.0000 C   0  0  0  0  0  0  0  0  0  0  0  0
    2.9635    8.6170    0.0000 N   0  0  0  0  0  0  0  0  0  0  0  0
    2.9771   10.1169    0.0000 C   0  0  0  0  0  0  0  0  0  0  0  0
    4.2557    7.8553    0.0000 C   0  0  0  0  0  0  0  0  0  0  0  0
    5.5614    8.5933    0.0000 C   0  0  0  0  0  0  0  0  0  0  0  0
    5.9629   10.0386    0.0000 C   0  0  0  0  0  0  0  0  0  0  0  0
    7.4081    9.6372    0.0000 C   0  0  0  0  0  0  0  0  0  0  0  0
    8.8606   10.0123    0.0000 C   0  0  0  0  0  0  0  0  0  0  0  0
    9.9116    8.9420    0.0000 C   0  0  0  0  0  0  0  0  0  0  0  0
   11.3637    9.3171    0.0000 O   0  0  0  0  0  0  0  0  0  0  0  0
   11.7652   10.7624    0.0000 C   0  0  0  0  0  0  0  0  0  0  0  0
    9.5101    7.4967    0.0000 C   0  0  0  0  0  0  0  0  0  0  0  0
   10.5611    6.4265    0.0000 O   0  0  0  0  0  0  0  0  0  0  0  0
   10.1597    4.9812    0.0000 C   0  0  0  0  0  0  0  0  0  0  0  0
    8.0576    7.1218    0.0000 C   0  0  0  0  0  0  0  0  0  0  0  0
    7.0069    8.1919    0.0000 C   0  0  0  0  0  0  0  0  0  0  0  0
   -3.4791    7.8301    0.0000 C   0  0  0  0  0  0  0  0  0  0  0  0
   -3.2698    6.3448    0.0000 O   0  0  0  0  0  0  0  0  0  0  0  0
   -4.9081    8.2854    0.0000 C   0  0  0  0  0  0  0  0  0  0  0  0
   -5.4427    9.6870    0.0000 C   0  0  0  0  0  0  0  0  0  0  0  0
   -6.9426    9.7006    0.0000 C   0  0  0  0  0  0  0  0  0  0  0  0
   -7.6809   11.0063    0.0000 C   0  0  0  0  0  0  0  0  0  0  0  0
   -9.1807   11.0199    0.0000 O   0  0  0  0  0  0  0  0  0  0  0  0
   -9.9426    9.7279    0.0000 C   0  0  0  0  0  0  0  0  0  0  0  0
  1  2  1  0  0  0  0
  2  3  1  0  0  0  0
  4  3  2  0  0  0  0
  3 32  1  0  0  0  0
  5  4  1  0  0  0  0
  6  5  1  0  0  0  0
  5 30  2  0  0  0  0
  7  6  1  0  0  0  0
  8  7  1  0  0  0  0
  8  9  1  0  0  0  0
 27  8  1  0  0  0  0
  9 10  1  0  0  0  0
 10 11  1  0  0  0  0
 11 12  1  0  0  0  0
 12 13  1  0  0  0  0
 12 14  1  0  0  0  0
 14 15  1  0  0  0  0
 16 15  1  0  0  0  0
 15 26  1  0  0  0  0
 17 16  1  0  0  0  0
 18 17  2  0  0  0  0
 17 26  1  0  0  0  0
 19 18  1  0  0  0  0
 19 20  1  0  0  0  0
 22 19  2  0  0  0  0
 20 21  1  0  0  0  0
 22 23  1  0  0  0  0
 25 22  1  0  0  0  0
 23 24  1  0  0  0  0
 26 25  2  0  0  0  0
 27 28  2  0  0  0  0
 29 27  1  0  0  0  0
 30 29  1  0  0  0  0
 31 30  1  0  0  0  0
 32 31  2  0  0  0  0
 32 33  1  0  0  0  0
 33 34  1  0  0  0  0
M  END
> <Inchi_key>
ACRHBAYQBXXRTO-UHFFFAOYSA-N

> <Source>
Mulliner

> <ID>
HT1148

> <H_MFHB>
0

> <CAS>


> <Cholestasis>


> <Name>
ivabradine

> <Class>
0


$$$$