

  -INDIGO-08031710012D

 27 30  0  0  0  0  0  0  0  0999 V2000
   -0.1364    5.9245    0.0000 C   0  0  0  0  0  0  0  0  0  0  0  0
   -0.7804    4.5697    0.0000 C   0  0  0  0  0  0  0  0  0  0  0  0
    0.0710    3.3347    0.0000 C   0  0  0  0  0  0  0  0  0  0  0  0
    0.8304    4.6282    0.0000 C   0  0  0  0  0  0  0  0  0  0  0  0
    2.3304    4.6172    0.0000 C   0  0  0  0  0  0  0  0  0  0  0  0
    3.0709    3.3127    0.0000 C   0  0  0  0  0  0  0  0  0  0  0  0
    2.3113    2.0192    0.0000 C   0  0  0  0  0  0  0  0  0  0  0  0
    3.0517    0.7147    0.0000 C   0  0  0  0  0  0  0  0  0  0  0  0
    4.5518    0.7037    0.0000 C   0  0  0  0  0  0  0  0  0  0  0  0
    5.3112    1.9972    0.0000 C   0  0  0  0  0  0  0  0  0  0  0  0
    6.8112    1.9862    0.0000 C   0  0  0  0  0  0  0  0  0  0  0  0
    7.5706    3.2797    0.0000 C   0  0  0  0  0  0  0  0  0  0  0  0
    9.0706    3.2687    0.0000 N   0  0  0  0  0  0  0  0  0  0  0  0
    9.8111    1.9641    0.0000 O   0  0  0  0  0  0  0  0  0  0  0  0
    6.8304    4.5842    0.0000 C   0  0  0  0  0  0  0  0  0  0  0  0
    5.3303    4.5952    0.0000 C   0  0  0  0  0  0  0  0  0  0  0  0
    4.5707    3.3017    0.0000 C   0  0  0  0  0  0  0  0  0  0  0  0
    0.8115    2.0302    0.0000 C   0  0  0  0  0  0  0  0  0  0  0  0
   -0.2006    0.9229    0.0000 C   0  0  0  0  0  0  0  0  0  0  0  0
   -1.5663    1.5430    0.0000 C   0  0  0  0  0  0  0  0  0  0  0  0
   -1.3986    3.0336    0.0000 C   0  0  0  0  0  0  0  0  0  0  0  0
   -2.8783    3.2791    0.0000 O   0  0  0  0  0  0  0  0  0  0  0  0
   -3.8308    2.1204    0.0000 C   0  0  0  0  0  0  0  0  0  0  0  0
   -3.3036    0.7161    0.0000 O   0  0  0  0  0  0  0  0  0  0  0  0
   -5.3106    2.3659    0.0000 C   0  0  0  0  0  0  0  0  0  0  0  0
   -1.8765    4.4554    0.0000 C   0  0  0  0  0  0  0  0  0  0  0  0
   -2.3543    5.8773    0.0000 C   0  0  0  0  0  0  0  0  0  0  0  0
  1  2  1  0  0  0  0
  2  3  1  0  0  0  0
  4  3  1  0  0  0  0
 18  3  1  0  0  0  0
  3 21  1  0  0  0  0
  5  4  1  0  0  0  0
  6  5  1  0  0  0  0
  6  7  1  0  0  0  0
 17  6  1  0  0  0  0
  7  8  1  0  0  0  0
 18  7  1  0  0  0  0
  8  9  1  0  0  0  0
  9 10  1  0  0  0  0
 11 10  2  0  0  0  0
 10 17  1  0  0  0  0
 12 11  1  0  0  0  0
 12 13  2  0  0  0  0
 15 12  1  0  0  0  0
 13 14  1  0  0  0  0
 16 15  1  0  0  0  0
 17 16  1  0  0  0  0
 19 18  1  0  0  0  0
 20 19  1  0  0  0  0
 21 20  1  0  0  0  0
 21 22  1  0  0  0  0
 21 26  1  0  0  0  0
 22 23  1  0  0  0  0
 23 24  2  0  0  0  0
 23 25  1  0  0  0  0
 26 27  3  0  0  0  0
M  END
> <Inchi_key>
KIQQMECNKUGGKA-ULJHMMPZSA-N

> <Source>
Mulliner

> <ID>
HT1526

> <H_MFHB>
0

> <CAS>


> <Cholestasis>


> <Name>
norgestimate

> <Class>
0


$$$$