
  -INDIGO-08031710012D

 36 39  0  0  0  0  0  0  0  0999 V2000
   17.0659    1.9496    0.0000 C   0  0  0  0  0  0  0  0  0  0  0  0
   16.1640    3.1481    0.0000 C   0  0  0  0  0  0  0  0  0  0  0  0
   14.6751    2.9663    0.0000 C   0  0  0  0  0  0  0  0  0  0  0  0
   14.0881    1.5859    0.0000 O   0  0  0  0  0  0  0  0  0  0  0  0
   13.7730    4.1648    0.0000 O   0  0  0  0  0  0  0  0  0  0  0  0
   12.2841    3.9830    0.0000 C   0  0  0  0  0  0  0  0  0  0  0  0
   11.3822    5.1814    0.0000 C   0  0  0  0  0  0  0  0  0  0  0  0
   11.9692    6.5618    0.0000 O   0  0  0  0  0  0  0  0  0  0  0  0
    9.8933    4.9996    0.0000 C   0  0  0  0  0  0  0  0  0  0  0  0
   10.4317    6.3996    0.0000 O   0  0  0  0  0  0  0  0  0  0  0  0
    9.4884    7.5658    0.0000 C   0  0  0  0  0  0  0  0  0  0  0  0
    8.0067    7.3321    0.0000 O   0  0  0  0  0  0  0  0  0  0  0  0
   10.0267    8.9660    0.0000 C   0  0  0  0  0  0  0  0  0  0  0  0
    9.0837   10.1323    0.0000 C   0  0  0  0  0  0  0  0  0  0  0  0
    9.9969    3.5032    0.0000 C   0  0  0  0  0  0  0  0  0  0  0  0
   11.2685    2.7076    0.0000 C   0  0  0  0  0  0  0  0  0  0  0  0
    8.6056    2.9422    0.0000 C   0  0  0  0  0  0  0  0  0  0  0  0
    7.6424    4.0919    0.0000 C   0  0  0  0  0  0  0  0  0  0  0  0
    6.1433    4.1451    0.0000 C   0  0  0  0  0  0  0  0  0  0  0  0
    5.3476    2.8736    0.0000 C   0  0  0  0  0  0  0  0  0  0  0  0
    3.8485    2.9269    0.0000 C   0  0  0  0  0  0  0  0  0  0  0  0
    3.1451    4.2517    0.0000 C   0  0  0  0  0  0  0  0  0  0  0  0
    1.6460    4.3049    0.0000 C   0  0  0  0  0  0  0  0  0  0  0  0
    0.9428    5.6299    0.0000 C   0  0  0  0  0  0  0  0  0  0  0  0
   -0.5563    5.6832    0.0000 O   0  0  0  0  0  0  0  0  0  0  0  0
    1.7385    6.9015    0.0000 C   0  0  0  0  0  0  0  0  0  0  0  0
    3.2373    6.8482    0.0000 C   0  0  0  0  0  0  0  0  0  0  0  0
    3.9407    5.5234    0.0000 C   0  0  0  0  0  0  0  0  0  0  0  0
    4.7364    6.7949    0.0000 C   0  0  0  0  0  0  0  0  0  0  0  0
    5.4398    5.4700    0.0000 C   0  0  0  0  0  0  0  0  0  0  0  0
    6.9390    5.4167    0.0000 Cl  0  0  0  0  0  0  0  0  0  0  0  0
    6.2355    6.7416    0.0000 C   0  0  0  0  0  0  0  0  0  0  0  0
    5.5321    8.0663    0.0000 O   0  0  0  0  0  0  0  0  0  0  0  0
    7.7346    6.6883    0.0000 C   0  0  0  0  0  0  0  0  0  0  0  0
    8.4381    5.3633    0.0000 C   0  0  0  0  0  0  0  0  0  0  0  0
    9.3415    6.5608    0.0000 C   0  0  0  0  0  0  0  0  0  0  0  0
  1  2  1  0  0  0  0
  2  3  1  0  0  0  0
  3  4  2  0  0  0  0
  3  5  1  0  0  0  0
  5  6  1  0  0  0  0
  6  7  1  0  0  0  0
  7  8  2  0  0  0  0
  7  9  1  0  0  0  0
  9 10  1  0  0  0  0
 15  9  1  0  0  0  0
  9 35  1  0  0  0  0
 10 11  1  0  0  0  0
 11 12  2  0  0  0  0
 11 13  1  0  0  0  0
 13 14  1  0  0  0  0
 15 16  1  0  0  0  0
 17 15  1  0  0  0  0
 18 17  1  0  0  0  0
 19 18  1  0  0  0  0
 18 35  1  0  0  0  0
 20 19  1  0  0  0  0
 19 30  1  0  0  0  0
 21 20  1  0  0  0  0
 22 21  1  0  0  0  0
 23 22  2  0  0  0  0
 22 28  1  0  0  0  0
 24 23  1  0  0  0  0
 24 25  2  0  0  0  0
 26 24  1  0  0  0  0
 27 26  2  0  0  0  0
 28 27  1  0  0  0  0
 28 29  1  0  0  0  0
 30 28  1  0  0  0  0
 30 31  1  0  0  0  0
 32 30  1  0  0  0  0
 32 33  1  0  0  0  0
 34 32  1  0  0  0  0
 35 34  1  0  0  0  0
 35 36  1  0  0  0  0
M  END
> <Inchi_key>
KUVIULQEHSCUHY-UHFFFAOYSA-N

> <Source>
Mulliner , Kotsampasakou

> <ID>
EK0054;HT0231

> <H_MFHB>
0

> <CAS>


> <Cholestasis>
0

> <Name>
beclomethasone dipropionate;beclomethasone dipropionate monohydrate;beclometasone dipropionate

> <Class>
0

$$$$