
  -INDIGO-08031710012D

 13 12  0  0  0  0  0  0  0  0999 V2000
   -0.4378   -5.0788    0.0000 C   0  0  0  0  0  0  0  0  0  0  0  0
   -1.7368   -4.3288    0.0000 C   0  0  0  0  0  0  0  0  0  0  0  0
   -3.0359   -5.0788    0.0000 O   0  0  0  0  0  0  0  0  0  0  0  0
   -1.7368   -2.8288    0.0000 N   0  0  0  0  0  0  0  0  0  0  0  0
   -0.4378   -2.0788    0.0000 C   0  0  0  0  0  0  0  0  0  0  0  0
    0.8612   -2.8288    0.0000 C   0  0  0  0  0  0  0  0  0  0  0  0
    2.1603   -2.0788    0.0000 C   0  0  0  0  0  0  0  0  0  0  0  0
    3.4593   -2.8288    0.0000 C   0  0  0  0  0  0  0  0  0  0  0  0
    3.4593   -4.3288    0.0000 O   0  0  0  0  0  0  0  0  0  0  0  0
    4.7584   -2.0788    0.0000 N   0  0  0  0  0  0  0  0  0  0  0  0
   -0.4378   -0.5788    0.0000 C   0  0  0  0  0  0  0  0  0  0  0  0
    0.8612    0.1712    0.0000 O   0  0  0  0  0  0  0  0  0  0  0  0
   -1.7368    0.1712    0.0000 O   0  0  0  0  0  0  0  0  0  0  0  0
  1  2  1  0  0  0  0
  2  3  2  0  0  0  0
  2  4  1  0  0  0  0
  4  5  1  0  0  0  0
  5  6  1  0  0  0  0
  5 11  1  0  0  0  0
  6  7  1  0  0  0  0
  7  8  1  0  0  0  0
  8  9  2  0  0  0  0
  8 10  1  0  0  0  0
 11 12  2  0  0  0  0
 11 13  1  0  0  0  0
M  END
> <Inchi_key>
KSMRODHGGIIXDV-UHFFFAOYSA-N

> <Source>
Mulliner

> <ID>
HT2809

> <H_MFHB>
0

> <CAS>


> <Cholestasis>


> <Name>


> <Class>
0

$$$$