
  -INDIGO-08031710012D

 35 34  0  0  0  0  0  0  0  0999 V2000
   15.1427   -0.7427    0.0000 C   0  0  0  0  0  0  0  0  0  0  0  0
   15.1427   -2.2427    0.0000 O   0  0  0  0  0  0  0  0  0  0  0  0
   13.8437   -2.9927    0.0000 C   0  0  0  0  0  0  0  0  0  0  0  0
   13.8437   -4.4927    0.0000 C   0  0  0  0  0  0  0  0  0  0  0  0
   12.5445   -5.2427    0.0000 N   0  0  0  0  0  0  0  0  0  0  0  0
   12.5445   -6.7427    0.0000 C   0  0  0  0  0  0  0  0  0  0  0  0
   13.8437   -7.4927    0.0000 O   0  0  0  0  0  0  0  0  0  0  0  0
   11.2455   -7.4927    0.0000 C   0  0  0  0  0  0  0  0  0  0  0  0
   11.2455   -8.9927    0.0000 N   0  0  0  0  0  0  0  0  0  0  0  0
    9.9465   -9.7427    0.0000 C   0  0  0  0  0  0  0  0  0  0  0  0
    8.6476   -8.9927    0.0000 C   0  0  0  0  0  0  0  0  0  0  0  0
    7.3486   -9.7427    0.0000 N   0  0  0  0  0  0  0  0  0  0  0  0
    6.0493   -8.9927    0.0000 C   0  0  0  0  0  0  0  0  0  0  0  0
    4.7504   -9.7427    0.0000 C   0  0  0  0  0  0  0  0  0  0  0  0
    3.4514   -8.9927    0.0000 N   0  0  0  0  0  0  0  0  0  0  0  0
    2.1524   -9.7427    0.0000 C   0  0  0  0  0  0  0  0  0  0  0  0
    2.1524  -11.2427    0.0000 C   0  0  0  0  0  0  0  0  0  0  0  0
    3.4514  -11.9927    0.0000 O   0  0  0  0  0  0  0  0  0  0  0  0
    0.8532  -11.9927    0.0000 O   0  0  0  0  0  0  0  0  0  0  0  0
    3.4514   -7.4927    0.0000 C   0  0  0  0  0  0  0  0  0  0  0  0
    2.1524   -6.7427    0.0000 C   0  0  0  0  0  0  0  0  0  0  0  0
    0.8532   -7.4927    0.0000 O   0  0  0  0  0  0  0  0  0  0  0  0
    2.1524   -5.2427    0.0000 N   0  0  0  0  0  0  0  0  0  0  0  0
    0.8532   -4.4927    0.0000 C   0  0  0  0  0  0  0  0  0  0  0  0
    0.8532   -2.9927    0.0000 C   0  0  0  0  0  0  0  0  0  0  0  0
   -0.4458   -2.2427    0.0000 O   0  0  0  0  0  0  0  0  0  0  0  0
   -0.4458   -0.7427    0.0000 C   0  0  0  0  0  0  0  0  0  0  0  0
    7.3486  -11.2427    0.0000 C   0  0  0  0  0  0  0  0  0  0  0  0
    6.0493  -11.9927    0.0000 C   0  0  0  0  0  0  0  0  0  0  0  0
    4.7504  -11.2427    0.0000 O   0  0  0  0  0  0  0  0  0  0  0  0
    6.0493  -13.4927    0.0000 O   0  0  0  0  0  0  0  0  0  0  0  0
   12.5445   -9.7427    0.0000 C   0  0  0  0  0  0  0  0  0  0  0  0
   12.5445  -11.2427    0.0000 C   0  0  0  0  0  0  0  0  0  0  0  0
   11.2455  -11.9927    0.0000 O   0  0  0  0  0  0  0  0  0  0  0  0
   13.8437  -11.9927    0.0000 O   0  0  0  0  0  0  0  0  0  0  0  0
  1  2  1  0  0  0  0
  2  3  1  0  0  0  0
  3  4  1  0  0  0  0
  4  5  1  0  0  0  0
  5  6  1  0  0  0  0
  6  7  2  0  0  0  0
  6  8  1  0  0  0  0
  8  9  1  0  0  0  0
  9 10  1  0  0  0  0
  9 32  1  0  0  0  0
 10 11  1  0  0  0  0
 11 12  1  0  0  0  0
 12 13  1  0  0  0  0
 12 28  1  0  0  0  0
 13 14  1  0  0  0  0
 14 15  1  0  0  0  0
 15 16  1  0  0  0  0
 15 20  1  0  0  0  0
 16 17  1  0  0  0  0
 17 18  2  0  0  0  0
 17 19  1  0  0  0  0
 20 21  1  0  0  0  0
 21 22  2  0  0  0  0
 21 23  1  0  0  0  0
 23 24  1  0  0  0  0
 24 25  1  0  0  0  0
 25 26  1  0  0  0  0
 26 27  1  0  0  0  0
 28 29  1  0  0  0  0
 29 30  2  0  0  0  0
 29 31  1  0  0  0  0
 32 33  1  0  0  0  0
 33 34  2  0  0  0  0
 33 35  1  0  0  0  0
M  END
> <Inchi_key>
AXFGWXLCWCNPHP-UHFFFAOYSA-N

> <Source>
Mulliner

> <ID>
HT0957

> <H_MFHB>
0

> <CAS>


> <Cholestasis>


> <Name>
gadoversetamide

> <Class>
0

$$$$