
  -INDIGO-08031710012D

 32 35  0  0  0  0  0  0  0  0999 V2000
    4.3847   -2.1210    0.0000 C   0  0  0  0  0  0  0  0  0  0  0  0
    4.6498   -0.6446    0.0000 C   0  0  0  0  0  0  0  0  0  0  0  0
    6.0611   -0.1362    0.0000 C   0  0  0  0  0  0  0  0  0  0  0  0
    3.5039    0.3232    0.0000 C   0  0  0  0  0  0  0  0  0  0  0  0
    2.2024   -0.4226    0.0000 N   0  0  0  0  0  0  0  0  0  0  0  0
    0.9058    0.3316    0.0000 C   0  0  0  0  0  0  0  0  0  0  0  0
    0.9106    1.8314    0.0000 C   0  0  0  0  0  0  0  0  0  0  0  0
    2.2121    2.5773    0.0000 C   0  0  0  0  0  0  0  0  0  0  0  0
    3.5087    1.8232    0.0000 C   0  0  0  0  0  0  0  0  0  0  0  0
    4.4765    2.9691    0.0000 C   0  0  0  0  0  0  0  0  0  0  0  0
    5.9712    3.0952    0.0000 C   0  0  0  0  0  0  0  0  0  0  0  0
    7.1173    2.1272    0.0000 C   0  0  0  0  0  0  0  0  0  0  0  0
    6.5998    0.7193    0.0000 C   0  0  0  0  0  0  0  0  0  0  0  0
    7.5601   -0.4329    0.0000 C   0  0  0  0  0  0  0  0  0  0  0  0
    7.0426   -1.8406    0.0000 O   0  0  0  0  0  0  0  0  0  0  0  0
    9.0381   -0.1770    0.0000 C   0  0  0  0  0  0  0  0  0  0  0  0
    9.5556    1.2308    0.0000 C   0  0  0  0  0  0  0  0  0  0  0  0
   11.0557    1.2260    0.0000 O   0  0  0  0  0  0  0  0  0  0  0  0
    8.5953    2.3831    0.0000 O   0  0  0  0  0  0  0  0  0  0  0  0
    2.2170    4.0774    0.0000 C   0  0  0  0  0  0  0  0  0  0  0  0
    3.5183    4.8233    0.0000 C   0  0  0  0  0  0  0  0  0  0  0  0
    3.5230    6.3231    0.0000 C   0  0  0  0  0  0  0  0  0  0  0  0
    2.2264    7.0773    0.0000 C   0  0  0  0  0  0  0  0  0  0  0  0
    2.2314    8.5773    0.0000 F   0  0  0  0  0  0  0  0  0  0  0  0
    0.9249    6.3315    0.0000 C   0  0  0  0  0  0  0  0  0  0  0  0
    0.9202    4.8315    0.0000 C   0  0  0  0  0  0  0  0  0  0  0  0
   -0.3957   -0.4143    0.0000 C   0  0  0  0  0  0  0  0  0  0  0  0
   -0.4004   -1.9144    0.0000 C   0  0  0  0  0  0  0  0  0  0  0  0
   -1.7019   -2.6601    0.0000 C   0  0  0  0  0  0  0  0  0  0  0  0
   -2.9985   -1.9060    0.0000 C   0  0  0  0  0  0  0  0  0  0  0  0
   -2.9938   -0.4059    0.0000 C   0  0  0  0  0  0  0  0  0  0  0  0
   -1.6923    0.3398    0.0000 C   0  0  0  0  0  0  0  0  0  0  0  0
  1  2  1  0  0  0  0
  2  3  1  0  0  0  0
  2  4  1  0  0  0  0
  5  4  2  0  0  0  0
  4  9  1  0  0  0  0
  6  5  1  0  0  0  0
  7  6  2  0  0  0  0
  6 27  1  0  0  0  0
  8  7  1  0  0  0  0
  9  8  2  0  0  0  0
  8 20  1  0  0  0  0
  9 10  1  0  0  0  0
 10 11  2  0  0  0  0
 11 12  1  0  0  0  0
 13 12  1  0  0  0  0
 12 19  1  0  0  0  0
 14 13  1  0  0  0  0
 14 15  1  0  0  0  0
 16 14  1  0  0  0  0
 17 16  1  0  0  0  0
 17 18  2  0  0  0  0
 19 17  1  0  0  0  0
 21 20  2  0  0  0  0
 20 26  1  0  0  0  0
 22 21  1  0  0  0  0
 23 22  2  0  0  0  0
 23 24  1  0  0  0  0
 25 23  1  0  0  0  0
 26 25  2  0  0  0  0
 28 27  2  0  0  0  0
 27 32  1  0  0  0  0
 29 28  1  0  0  0  0
 30 29  2  0  0  0  0
 31 30  1  0  0  0  0
 32 31  2  0  0  0  0
M  END
> <Inchi_key>
LJIZUXQINHXGAO-SEYXRHQNSA-N

> <Source>
Mulliner

> <ID>
HT0985

> <H_MFHB>
0

> <CAS>
122254-45-9

> <Cholestasis>


> <Name>
glenvastatin

> <Class>
0

$$$$