
  -INDIGO-08031710012D

 21 23  0  0  0  0  0  0  0  0999 V2000
   10.1656    1.2239    0.0000 C   0  0  0  0  0  0  0  0  0  0  0  0
    8.8664    1.9739    0.0000 N   0  0  0  0  0  0  0  0  0  0  0  0
   10.1656    2.7239    0.0000 C   0  0  0  0  0  0  0  0  0  0  0  0
    8.1164    0.6748    0.0000 C   0  0  0  0  0  0  0  0  0  0  0  0
    6.6166    0.6748    0.0000 C   0  0  0  0  0  0  0  0  0  0  0  0
    5.8665    1.9739    0.0000 C   0  0  0  0  0  0  0  0  0  0  0  0
    4.3665    1.9739    0.0000 C   0  0  0  0  0  0  0  0  0  0  0  0
    3.6165    3.2729    0.0000 C   0  0  0  0  0  0  0  0  0  0  0  0
    2.1165    3.2729    0.0000 C   0  0  0  0  0  0  0  0  0  0  0  0
    1.3665    4.5719    0.0000 C   0  0  0  0  0  0  0  0  0  0  0  0
    2.1165    5.8710    0.0000 C   0  0  0  0  0  0  0  0  0  0  0  0
    3.6165    5.8710    0.0000 C   0  0  0  0  0  0  0  0  0  0  0  0
    4.3665    4.5719    0.0000 C   0  0  0  0  0  0  0  0  0  0  0  0
    3.6165    0.6748    0.0000 C   0  0  0  0  0  0  0  0  0  0  0  0
    4.3665   -0.6242    0.0000 C   0  0  0  0  0  0  0  0  0  0  0  0
    3.6165   -1.9233    0.0000 C   0  0  0  0  0  0  0  0  0  0  0  0
    2.1165   -1.9233    0.0000 C   0  0  0  0  0  0  0  0  0  0  0  0
    1.3665   -0.6242    0.0000 C   0  0  0  0  0  0  0  0  0  0  0  0
    2.1165    0.6748    0.0000 C   0  0  0  0  0  0  0  0  0  0  0  0
    6.6166    3.2729    0.0000 C   0  0  0  0  0  0  0  0  0  0  0  0
    8.1164    3.2729    0.0000 C   0  0  0  0  0  0  0  0  0  0  0  0
  1  2  1  0  0  0  0
  2  3  1  0  0  0  0
  4  2  1  0  0  0  0
  2 21  1  0  0  0  0
  5  4  1  0  0  0  0
  6  5  1  0  0  0  0
  6  7  2  0  0  0  0
 20  6  1  0  0  0  0
  7  8  1  0  0  0  0
  7 14  1  0  0  0  0
  9  8  2  0  0  0  0
  8 13  1  0  0  0  0
 10  9  1  0  0  0  0
 11 10  2  0  0  0  0
 12 11  1  0  0  0  0
 13 12  2  0  0  0  0
 15 14  2  0  0  0  0
 14 19  1  0  0  0  0
 16 15  1  0  0  0  0
 17 16  2  0  0  0  0
 18 17  1  0  0  0  0
 19 18  2  0  0  0  0
 21 20  1  0  0  0  0
M  CHG  1   2   1
M  END
> <Inchi_key>
LCTZPQRFOZKZNK-UHFFFAOYSA-N

> <Source>
Mulliner

> <ID>
HT0685

> <H_MFHB>
0

> <CAS>


> <Cholestasis>


> <Name>
diphemanil methylsulfate

> <Class>
0

$$$$