

  -INDIGO-08031710012D

  8  7  0  0  0  0  0  0  0  0999 V2000
   -0.0668   -1.3744    0.0000 C   0  0  0  0  0  0  0  0  0  0  0  0
    1.2322   -0.6244    0.0000 C   0  0  0  0  0  0  0  0  0  0  0  0
    1.2322    0.8756    0.0000 O   0  0  0  0  0  0  0  0  0  0  0  0
    2.5312   -1.3744    0.0000 C   0  0  0  0  0  0  0  0  0  0  0  0
    2.5312   -2.8744    0.0000 N   0  0  0  0  0  0  0  0  0  0  0  0
    3.8303   -0.6244    0.0000 C   0  0  0  0  0  0  0  0  0  0  0  0
    5.1293   -1.3744    0.0000 O   0  0  0  0  0  0  0  0  0  0  0  0
    3.8303    0.8756    0.0000 O   0  0  0  0  0  0  0  0  0  0  0  0
  1  2  1  0  0  0  0
  2  3  1  0  0  0  0
  2  4  1  0  0  0  0
  4  5  1  0  0  0  0
  4  6  1  0  0  0  0
  6  7  2  0  0  0  0
  6  8  1  0  0  0  0
M  END
> <Inchi_key>
AYFVYJQAPQTCCC-UHFFFAOYSA-N

> <Source>
Mulliner

> <ID>
HT1251

> <H_MFHB>
0

> <CAS>


> <Cholestasis>


> <Name>
l-threonine

> <Class>
0


$$$$