
  -INDIGO-08031710012D

 22 24  0  0  0  0  0  0  0  0999 V2000
    1.7126    1.7125    0.0000 C   0  0  0  0  0  0  0  0  0  0  0  0
    1.7126    0.2125    0.0000 C   0  0  0  0  0  0  0  0  0  0  0  0
    0.4135   -0.5375    0.0000 C   0  0  0  0  0  0  0  0  0  0  0  0
    0.4135   -2.0375    0.0000 C   0  0  0  0  0  0  0  0  0  0  0  0
    1.7126   -2.7875    0.0000 N   0  0  0  0  0  0  0  0  0  0  0  0
    3.0117   -2.0375    0.0000 N   0  0  0  0  0  0  0  0  0  0  0  0
    3.0117   -0.5375    0.0000 C   0  0  0  0  0  0  0  0  0  0  0  0
    4.3105    0.2125    0.0000 N   0  0  0  0  0  0  0  0  0  0  0  0
    5.6096   -0.5375    0.0000 C   0  0  0  0  0  0  0  0  0  0  0  0
    6.9087    0.2125    0.0000 C   0  0  0  0  0  0  0  0  0  0  0  0
    8.2076   -0.5375    0.0000 N   0  0  0  0  0  0  0  0  0  0  0  0
    8.2076   -2.0375    0.0000 C   0  0  0  0  0  0  0  0  0  0  0  0
    9.5067   -2.7875    0.0000 C   0  0  0  0  0  0  0  0  0  0  0  0
   10.8058   -2.0375    0.0000 O   0  0  0  0  0  0  0  0  0  0  0  0
   10.8058   -0.5375    0.0000 C   0  0  0  0  0  0  0  0  0  0  0  0
    9.5067    0.2125    0.0000 C   0  0  0  0  0  0  0  0  0  0  0  0
   -0.8854   -2.7875    0.0000 C   0  0  0  0  0  0  0  0  0  0  0  0
   -2.1845   -2.0375    0.0000 C   0  0  0  0  0  0  0  0  0  0  0  0
   -3.4836   -2.7875    0.0000 C   0  0  0  0  0  0  0  0  0  0  0  0
   -3.4836   -4.2875    0.0000 C   0  0  0  0  0  0  0  0  0  0  0  0
   -2.1845   -5.0375    0.0000 C   0  0  0  0  0  0  0  0  0  0  0  0
   -0.8854   -4.2875    0.0000 C   0  0  0  0  0  0  0  0  0  0  0  0
  1  2  1  0  0  0  0
  3  2  2  0  0  0  0
  2  7  1  0  0  0  0
  4  3  1  0  0  0  0
  5  4  2  0  0  0  0
  4 17  1  0  0  0  0
  6  5  1  0  0  0  0
  7  6  2  0  0  0  0
  7  8  1  0  0  0  0
  8  9  1  0  0  0  0
  9 10  1  0  0  0  0
 10 11  1  0  0  0  0
 12 11  1  0  0  0  0
 11 16  1  0  0  0  0
 13 12  1  0  0  0  0
 14 13  1  0  0  0  0
 15 14  1  0  0  0  0
 16 15  1  0  0  0  0
 18 17  2  0  0  0  0
 17 22  1  0  0  0  0
 19 18  1  0  0  0  0
 20 19  2  0  0  0  0
 21 20  1  0  0  0  0
 22 21  2  0  0  0  0
M  END
> <Inchi_key>
LDMWSLGGVTVJPG-UHFFFAOYSA-N

> <Source>
Mulliner

> <ID>
HT1406

> <H_MFHB>
0

> <CAS>


> <Cholestasis>


> <Name>
minaprine

> <Class>
0

$$$$