

  -INDIGO-08031710012D

 19 20  0  0  0  0  0  0  0  0999 V2000
    0.0000    0.0000    0.0000 C   0  0  0  0  0  0  0  0  0  0  0  0
    1.5000    0.0000    0.0000 O   0  0  0  0  0  0  0  0  0  0  0  0
    2.2500    1.2990    0.0000 C   0  0  0  0  0  0  0  0  0  0  0  0
    1.5000    2.5981    0.0000 N   0  0  0  0  0  0  0  0  0  0  0  0
    2.2500    3.8971    0.0000 C   0  0  0  0  0  0  0  0  0  0  0  0
    3.7501    3.8971    0.0000 C   0  0  0  0  0  0  0  0  0  0  0  0
    4.5001    2.5981    0.0000 N   0  0  0  0  0  0  0  0  0  0  0  0
    3.7501    1.2990    0.0000 C   0  0  0  0  0  0  0  0  0  0  0  0
    4.5001    0.0000    0.0000 N   0  0  0  0  0  0  0  0  0  0  0  0
    6.0001    0.0000    0.0000 S   0  0  0  0  0  0  0  0  0  0  0  0
    6.0001    1.5000    0.0000 O   0  0  0  0  0  0  0  0  0  0  0  0
    6.0001   -1.5000    0.0000 O   0  0  0  0  0  0  0  0  0  0  0  0
    7.4999    0.0000    0.0000 C   0  0  0  0  0  0  0  0  0  0  0  0
    8.2499   -1.2990    0.0000 C   0  0  0  0  0  0  0  0  0  0  0  0
    9.7500   -1.2990    0.0000 C   0  0  0  0  0  0  0  0  0  0  0  0
   10.5000    0.0000    0.0000 C   0  0  0  0  0  0  0  0  0  0  0  0
   12.0000    0.0000    0.0000 N   0  0  0  0  0  0  0  0  0  0  0  0
    9.7500    1.2990    0.0000 C   0  0  0  0  0  0  0  0  0  0  0  0
    8.2499    1.2990    0.0000 C   0  0  0  0  0  0  0  0  0  0  0  0
  1  2  1  0  0  0  0
  2  3  1  0  0  0  0
  4  3  2  0  0  0  0
  3  8  1  0  0  0  0
  5  4  1  0  0  0  0
  6  5  2  0  0  0  0
  7  6  1  0  0  0  0
  8  7  2  0  0  0  0
  8  9  1  0  0  0  0
  9 10  1  0  0  0  0
 10 11  2  0  0  0  0
 10 12  2  0  0  0  0
 10 13  1  0  0  0  0
 14 13  2  0  0  0  0
 13 19  1  0  0  0  0
 15 14  1  0  0  0  0
 16 15  2  0  0  0  0
 16 17  1  0  0  0  0
 18 16  1  0  0  0  0
 19 18  2  0  0  0  0
M  END
> <Inchi_key>
KXRZBTAEDBELFD-UHFFFAOYSA-N

> <Source>
Mulliner

> <ID>
HT1947

> <H_MFHB>
0

> <CAS>


> <Cholestasis>


> <Name>
sulfametopyrazine

> <Class>
0


$$$$