

  -INDIGO-08031710012D

 41 44  0  0  0  0  0  0  0  0999 V2000
    9.8389   -7.0728    0.0000 O   0  0  0  0  0  0  0  0  0  0  0  0
    9.2375   -5.6986    0.0000 C   0  0  0  0  0  0  0  0  0  0  0  0
    7.7724   -5.3773    0.0000 N   0  0  0  0  0  0  0  0  0  0  0  0
    9.9958   -4.4044    0.0000 N   0  0  0  0  0  0  0  0  0  0  0  0
    8.9991   -3.2833    0.0000 N   0  0  0  0  0  0  0  0  0  0  0  0
   11.4884   -4.2571    0.0000 P   0  0  0  0  0  0  0  0  0  0  0  0
    7.6249   -3.8847    0.0000 C   0  0  0  0  0  0  0  0  0  0  0  0
   12.9813   -4.1098    0.0000 O   0  0  0  0  0  0  0  0  0  0  0  0
   11.3412   -2.7642    0.0000 O   0  0  0  0  0  0  0  0  0  0  0  0
   11.6359   -5.7499    0.0000 O   0  0  0  0  0  0  0  0  0  0  0  0
    6.3308   -3.1264    0.0000 C   0  0  0  0  0  0  0  0  0  0  0  0
    5.0271   -3.8679    0.0000 N   0  0  0  0  0  0  0  0  0  0  0  0
    5.0175   -5.3680    0.0000 C   0  0  0  0  0  0  0  0  0  0  0  0
    3.7329   -3.1096    0.0000 C   0  0  0  0  0  0  0  0  0  0  0  0
    3.7135   -6.1097    0.0000 C   0  0  0  0  0  0  0  0  0  0  0  0
    2.4289   -3.8514    0.0000 C   0  0  0  0  0  0  0  0  0  0  0  0
    3.7422   -1.6098    0.0000 C   0  0  0  0  0  0  0  0  0  0  0  0
    2.4193   -5.3514    0.0000 O   0  0  0  0  0  0  0  0  0  0  0  0
    1.1348   -3.0931    0.0000 O   0  0  0  0  0  0  0  0  0  0  0  0
    5.0460   -0.8680    0.0000 C   0  0  0  0  0  0  0  0  0  0  0  0
    2.4481   -0.8515    0.0000 C   0  0  0  0  0  0  0  0  0  0  0  0
   -0.1692   -3.8348    0.0000 C   0  0  0  0  0  0  0  0  0  0  0  0
    5.0556    0.6319    0.0000 C   0  0  0  0  0  0  0  0  0  0  0  0
    2.4577    0.6484    0.0000 C   0  0  0  0  0  0  0  0  0  0  0  0
   -0.1785   -5.3348    0.0000 C   0  0  0  0  0  0  0  0  0  0  0  0
   -1.4633   -3.0765    0.0000 C   0  0  0  0  0  0  0  0  0  0  0  0
    3.7614    1.3902    0.0000 C   0  0  0  0  0  0  0  0  0  0  0  0
   -1.4537   -1.5766    0.0000 C   0  0  0  0  0  0  0  0  0  0  0  0
   -2.7670   -3.8182    0.0000 C   0  0  0  0  0  0  0  0  0  0  0  0
    3.7710    2.8902    0.0000 F   0  0  0  0  0  0  0  0  0  0  0  0
   -2.7479   -0.8183    0.0000 C   0  0  0  0  0  0  0  0  0  0  0  0
   -4.0612   -3.0599    0.0000 C   0  0  0  0  0  0  0  0  0  0  0  0
   -4.0516   -1.5600    0.0000 C   0  0  0  0  0  0  0  0  0  0  0  0
   -2.7383    0.6817    0.0000 C   0  0  0  0  0  0  0  0  0  0  0  0
   -5.3652   -3.8017    0.0000 C   0  0  0  0  0  0  0  0  0  0  0  0
   -4.2384    0.6913    0.0000 F   0  0  0  0  0  0  0  0  0  0  0  0
   -2.7287    2.1816    0.0000 F   0  0  0  0  0  0  0  0  0  0  0  0
   -1.2384    0.6721    0.0000 F   0  0  0  0  0  0  0  0  0  0  0  0
   -6.1067   -2.4977    0.0000 F   0  0  0  0  0  0  0  0  0  0  0  0
   -6.6689   -4.5432    0.0000 F   0  0  0  0  0  0  0  0  0  0  0  0
   -4.6234   -5.1054    0.0000 F   0  0  0  0  0  0  0  0  0  0  0  0
  1  2  2  0  0  0  0
  3  2  1  0  0  0  0
  2  4  1  0  0  0  0
  4  5  1  0  0  0  0
  4  6  1  0  0  0  0
  5  7  2  0  0  0  0
  6  8  2  0  0  0  0
  6  9  1  0  0  0  0
  6 10  1  0  0  0  0
  7 11  1  0  0  0  0
  7  3  1  0  0  0  0
 11 12  1  0  0  0  0
 13 12  1  0  0  0  0
 12 14  1  0  0  0  0
 15 13  1  0  0  0  0
 14 16  1  0  0  0  0
 14 17  1  0  0  0  0
 18 15  1  0  0  0  0
 16 19  1  0  0  0  0
 16 18  1  0  0  0  0
 20 17  2  0  0  0  0
 17 21  1  0  0  0  0
 19 22  1  0  0  0  0
 23 20  1  0  0  0  0
 21 24  2  0  0  0  0
 22 25  1  0  0  0  0
 22 26  1  0  0  0  0
 27 23  2  0  0  0  0
 24 27  1  0  0  0  0
 28 26  2  0  0  0  0
 26 29  1  0  0  0  0
 27 30  1  0  0  0  0
 31 28  1  0  0  0  0
 29 32  2  0  0  0  0
 33 31  2  0  0  0  0
 31 34  1  0  0  0  0
 32 33  1  0  0  0  0
 32 35  1  0  0  0  0
 34 36  1  0  0  0  0
 34 37  1  0  0  0  0
 34 38  1  0  0  0  0
 35 39  1  0  0  0  0
 35 40  1  0  0  0  0
 35 41  1  0  0  0  0
M  END
> <Inchi_key>
BARDROPHSZEBKC-UHFFFAOYSA-N

> <Source>
Mulliner

> <ID>
HT0935

> <H_MFHB>
0

> <CAS>


> <Cholestasis>


> <Name>
fosaprepitant dimeglumine;fosaprepitant

> <Class>
0


$$$$