

  -INDIGO-08031710012D

 19 20  0  0  0  0  0  0  0  0999 V2000
    0.5406    2.3648    0.0000 C   0  0  0  0  0  0  0  0  0  0  0  0
   -0.2092    1.0658    0.0000 N   0  0  0  0  0  0  0  0  0  0  0  0
   -0.9593   -0.2332    0.0000 C   0  0  0  0  0  0  0  0  0  0  0  0
    1.0897    0.3158    0.0000 C   0  0  0  0  0  0  0  0  0  0  0  0
    2.3888    1.0658    0.0000 C   0  0  0  0  0  0  0  0  0  0  0  0
    3.6880    0.3158    0.0000 O   0  0  0  0  0  0  0  0  0  0  0  0
    4.9869    1.0658    0.0000 C   0  0  0  0  0  0  0  0  0  0  0  0
    6.2859    0.3158    0.0000 C   0  0  0  0  0  0  0  0  0  0  0  0
    7.5850    1.0658    0.0000 C   0  0  0  0  0  0  0  0  0  0  0  0
    7.5850    2.5658    0.0000 C   0  0  0  0  0  0  0  0  0  0  0  0
    6.2859    3.3158    0.0000 C   0  0  0  0  0  0  0  0  0  0  0  0
    4.9869    2.5658    0.0000 C   0  0  0  0  0  0  0  0  0  0  0  0
   -1.5084    1.8158    0.0000 C   0  0  0  0  0  0  0  0  0  0  0  0
   -2.8073    1.0658    0.0000 C   0  0  0  0  0  0  0  0  0  0  0  0
   -4.1065    1.8158    0.0000 C   0  0  0  0  0  0  0  0  0  0  0  0
   -5.4054    1.0658    0.0000 C   0  0  0  0  0  0  0  0  0  0  0  0
   -5.4054   -0.4342    0.0000 C   0  0  0  0  0  0  0  0  0  0  0  0
   -4.1065   -1.1842    0.0000 C   0  0  0  0  0  0  0  0  0  0  0  0
   -2.8073   -0.4342    0.0000 C   0  0  0  0  0  0  0  0  0  0  0  0
  1  2  1  0  0  0  0
  2  3  1  0  0  0  0
  2  4  1  0  0  0  0
  2 13  1  0  0  0  0
  4  5  1  0  0  0  0
  5  6  1  0  0  0  0
  6  7  1  0  0  0  0
  8  7  2  0  0  0  0
  7 12  1  0  0  0  0
  9  8  1  0  0  0  0
 10  9  2  0  0  0  0
 11 10  1  0  0  0  0
 12 11  2  0  0  0  0
 13 14  1  0  0  0  0
 15 14  2  0  0  0  0
 14 19  1  0  0  0  0
 16 15  1  0  0  0  0
 17 16  2  0  0  0  0
 18 17  1  0  0  0  0
 19 18  2  0  0  0  0
M  CHG  1   2   1
M  END
> <Inchi_key>
AVWWVJUMXRXPNF-UHFFFAOYSA-N

> <Source>
Mulliner

> <ID>
HT3130

> <H_MFHB>
0

> <CAS>


> <Cholestasis>


> <Name>


> <Class>
0


$$$$