
  -INDIGO-08031710012D

 23 25  0  0  0  0  0  0  0  0999 V2000
    2.8833    2.8833    0.0000 C   0  0  0  0  0  0  0  0  0  0  0  0
    2.8833    1.3833    0.0000 O   0  0  0  0  0  0  0  0  0  0  0  0
    1.5844    0.6333    0.0000 C   0  0  0  0  0  0  0  0  0  0  0  0
    0.2854    1.3833    0.0000 C   0  0  0  0  0  0  0  0  0  0  0  0
   -1.0138    0.6333    0.0000 C   0  0  0  0  0  0  0  0  0  0  0  0
   -2.4405    1.0970    0.0000 N   0  0  0  0  0  0  0  0  0  0  0  0
   -3.3220   -0.1167    0.0000 N   0  0  0  0  0  0  0  0  0  0  0  0
   -2.4405   -1.3302    0.0000 N   0  0  0  0  0  0  0  0  0  0  0  0
   -1.0138   -0.8667    0.0000 C   0  0  0  0  0  0  0  0  0  0  0  0
    0.2854   -1.6167    0.0000 C   0  0  0  0  0  0  0  0  0  0  0  0
    1.5844   -0.8667    0.0000 C   0  0  0  0  0  0  0  0  0  0  0  0
    2.8833   -1.6167    0.0000 C   0  0  0  0  0  0  0  0  0  0  0  0
    2.8833   -3.1166    0.0000 O   0  0  0  0  0  0  0  0  0  0  0  0
    4.1823   -0.8667    0.0000 N   0  0  0  0  0  0  0  0  0  0  0  0
    5.4815   -1.6167    0.0000 C   0  0  0  0  0  0  0  0  0  0  0  0
    6.7804   -0.8667    0.0000 C   0  0  0  0  0  0  0  0  0  0  0  0
    6.9373    0.6251    0.0000 C   0  0  0  0  0  0  0  0  0  0  0  0
    8.4044    0.9370    0.0000 C   0  0  0  0  0  0  0  0  0  0  0  0
    9.1545   -0.3620    0.0000 C   0  0  0  0  0  0  0  0  0  0  0  0
    8.1508   -1.4769    0.0000 N   0  0  0  0  0  0  0  0  0  0  0  0
    8.4626   -2.9440    0.0000 C   0  0  0  0  0  0  0  0  0  0  0  0
    9.8891   -3.4075    0.0000 C   0  0  0  0  0  0  0  0  0  0  0  0
   10.2011   -4.8747    0.0000 C   0  0  0  0  0  0  0  0  0  0  0  0
  1  2  1  0  0  0  0
  2  3  1  0  0  0  0
  4  3  2  0  0  0  0
  3 11  1  0  0  0  0
  5  4  1  0  0  0  0
  6  5  1  0  0  0  0
  5  9  2  0  0  0  0
  7  6  1  0  0  0  0
  8  7  2  0  0  0  0
  9  8  1  0  0  0  0
 10  9  1  0  0  0  0
 11 10  2  0  0  0  0
 11 12  1  0  0  0  0
 12 13  2  0  0  0  0
 12 14  1  0  0  0  0
 14 15  1  0  0  0  0
 15 16  1  0  0  0  0
 17 16  1  0  0  0  0
 16 20  1  0  0  0  0
 18 17  1  0  0  0  0
 19 18  1  0  0  0  0
 20 19  1  0  0  0  0
 20 21  1  0  0  0  0
 21 22  1  0  0  0  0
 22 23  2  0  0  0  0
M  END
> <Inchi_key>
KSEYRUGYKHXGFW-UHFFFAOYSA-N

> <Source>
Mulliner

> <ID>
HT0100

> <H_MFHB>
0

> <CAS>


> <Cholestasis>


> <Name>
alizapride

> <Class>
0

$$$$