

  -INDIGO-08031710012D

 20 21  0  0  0  0  0  0  0  0999 V2000
   -0.4633   -6.8720    0.0000 C   0  0  0  0  0  0  0  0  0  0  0  0
    0.2783   -5.5682    0.0000 N   0  0  0  0  0  0  0  0  0  0  0  0
    1.7782   -5.5586    0.0000 S   0  0  0  0  0  0  0  0  0  0  0  0
    1.7687   -4.0586    0.0000 O   0  0  0  0  0  0  0  0  0  0  0  0
    1.7879   -7.0585    0.0000 O   0  0  0  0  0  0  0  0  0  0  0  0
    3.2783   -5.5489    0.0000 C   0  0  0  0  0  0  0  0  0  0  0  0
    4.0199   -4.2451    0.0000 C   0  0  0  0  0  0  0  0  0  0  0  0
    3.2617   -2.9509    0.0000 C   0  0  0  0  0  0  0  0  0  0  0  0
    4.0033   -1.6471    0.0000 C   0  0  0  0  0  0  0  0  0  0  0  0
    5.5032   -1.6374    0.0000 C   0  0  0  0  0  0  0  0  0  0  0  0
    6.4997   -0.5163    0.0000 N   0  0  0  0  0  0  0  0  0  0  0  0
    7.8739   -1.1176    0.0000 C   0  0  0  0  0  0  0  0  0  0  0  0
    7.7266   -2.6103    0.0000 C   0  0  0  0  0  0  0  0  0  0  0  0
    8.8478   -3.6068    0.0000 C   0  0  0  0  0  0  0  0  0  0  0  0
   10.2715   -3.1342    0.0000 C   0  0  0  0  0  0  0  0  0  0  0  0
   11.3924   -4.1307    0.0000 N   0  0  0  0  0  0  0  0  0  0  0  0
   11.0901   -5.5999    0.0000 C   0  0  0  0  0  0  0  0  0  0  0  0
   12.8161   -3.6580    0.0000 C   0  0  0  0  0  0  0  0  0  0  0  0
    6.2614   -2.9316    0.0000 C   0  0  0  0  0  0  0  0  0  0  0  0
    5.5200   -4.2355    0.0000 C   0  0  0  0  0  0  0  0  0  0  0  0
  1  2  1  0  0  0  0
  2  3  1  0  0  0  0
  3  4  2  0  0  0  0
  3  5  2  0  0  0  0
  3  6  1  0  0  0  0
  6  7  1  0  0  0  0
  8  7  2  0  0  0  0
  7 20  1  0  0  0  0
  9  8  1  0  0  0  0
 10  9  2  0  0  0  0
 11 10  1  0  0  0  0
 10 19  1  0  0  0  0
 12 11  1  0  0  0  0
 13 12  2  0  0  0  0
 13 14  1  0  0  0  0
 19 13  1  0  0  0  0
 14 15  1  0  0  0  0
 15 16  1  0  0  0  0
 16 17  1  0  0  0  0
 16 18  1  0  0  0  0
 20 19  2  0  0  0  0
M  END
> <Inchi_key>
KQKPFRSPSRPDEB-UHFFFAOYSA-N

> <Source>
Mulliner , Kotsampasakou

> <ID>
EK0498;HT1965

> <H_MFHB>
0

> <CAS>


> <Cholestasis>
0

> <Name>
sumatriptan succinate;sumatriptan

> <Class>
0


$$$$