

  -INDIGO-08031710013D

  0  0  0  0  0  0  0  0  0  0  0 V3000
M  V30 BEGIN CTAB
M  V30 COUNTS 24 28 0 0 0
M  V30 BEGIN ATOM
M  V30 1 C 7.28111 -0.87131 0.0 0
M  V30 2 C 6.49929 -2.15147 0.0 0
M  V30 3 C 5.60512 -0.947099 0.0 0
M  V30 4 C 4.11518 -1.11926 0.0 0
M  V30 5 C 3.64766 -2.75048 0.5738 0
M  V30 6 C 4.44163 -3.63262 -0.343298 0
M  V30 7 C 3.63723 -4.8756 -0.102991 0
M  V30 8 C 2.17397 -4.82172 -0.428099 0
M  V30 9 C 1.52878 -3.53312 -0.354298 0
M  V30 10 O 0.508243 -4.11268 1.1984 0
M  V30 11 C 0.103311 -3.47687 -0.5058 0
M  V30 12 C -0.742977 -2.28645 -0.162204 0
M  V30 13 C 0.481054 -1.42004 -0.178794 0
M  V30 14 C 1.95372 -1.13927 -0.131102 0
M  V30 15 C 2.17346 -2.51144 0.43439 0
M  V30 16 C 2.89115 -3.8285 0.0 0
M  V30 17 C -0.105824 -0.0396247 0.0 0
M  V30 18 N -0.693044 1.3407 0.0 0
M  V30 19 O -2.2218 -2.0347 0.0 0
M  V30 20 C 5.90335 -3.528 0.0 0
M  V30 21 C 7.02837 -4.52018 0.0 0
M  V30 22 C 8.3196 -3.75679 0.0 0
M  V30 23 C 7.99265 -2.2929 0.0 0
M  V30 24 O 8.9848 -1.16792 0.0 0
M  V30 END ATOM
M  V30 BEGIN BOND
M  V30 1 1 1 2
M  V30 2 1 3 2
M  V30 3 1 20 2
M  V30 4 1 2 23
M  V30 5 1 4 3
M  V30 6 1 5 4
M  V30 7 1 5 6
M  V30 8 1 15 5
M  V30 9 1 6 7
M  V30 10 1 20 6
M  V30 11 1 7 8
M  V30 12 1 8 9
M  V30 13 1 10 9
M  V30 14 1 11 9
M  V30 15 1 9 15
M  V30 16 1 11 10
M  V30 17 1 12 11
M  V30 18 2 13 12
M  V30 19 1 12 19
M  V30 20 1 14 13
M  V30 21 1 13 17
M  V30 22 1 15 14
M  V30 23 1 15 16
M  V30 24 3 17 18
M  V30 25 1 21 20
M  V30 26 1 22 21
M  V30 27 1 23 22
M  V30 28 1 23 24
M  V30 END BOND
M  V30 BEGIN COLLECTION
M  V30 END COLLECTION
M  V30 END CTAB
M  END
> <Inchi_key>
KVJXBPDAXMEYOA-LKNBIZOKSA-N

> <Source>
Mulliner

> <ID>
HT2122

> <H_MFHB>
0

> <CAS>
13647-35-3

> <Cholestasis>


> <Name>
trilostane

> <Class>
0


$$$$