
  -INDIGO-08031710012D

 30 33  0  0  0  0  0  0  0  0999 V2000
   -2.5477   -3.4970    0.0000 C   0  0  0  0  0  0  0  0  0  0  0  0
   -3.8299   -2.7188    0.0000 C   0  0  0  0  0  0  0  0  0  0  0  0
   -3.7971   -1.2192    0.0000 O   0  0  0  0  0  0  0  0  0  0  0  0
   -2.4820   -0.4978    0.0000 C   0  0  0  0  0  0  0  0  0  0  0  0
   -1.1998   -1.2760    0.0000 C   0  0  0  0  0  0  0  0  0  0  0  0
    0.1156   -0.5546    0.0000 C   0  0  0  0  0  0  0  0  0  0  0  0
    0.1483    0.9450    0.0000 C   0  0  0  0  0  0  0  0  0  0  0  0
   -1.1341    1.7233    0.0000 N   0  0  0  0  0  0  0  0  0  0  0  0
   -2.4492    1.0019    0.0000 C   0  0  0  0  0  0  0  0  0  0  0  0
   -3.7316    1.7801    0.0000 N   0  0  0  0  0  0  0  0  0  0  0  0
    1.3977   -1.3328    0.0000 C   0  0  0  0  0  0  0  0  0  0  0  0
    1.5219   -2.8277    0.0000 C   0  0  0  0  0  0  0  0  0  0  0  0
    2.9820   -3.1717    0.0000 N   0  0  0  0  0  0  0  0  0  0  0  0
    3.7601   -1.8892    0.0000 N   0  0  0  0  0  0  0  0  0  0  0  0
    2.7811   -0.7527    0.0000 C   0  0  0  0  0  0  0  0  0  0  0  0
    5.2552   -1.7651    0.0000 C   0  0  0  0  0  0  0  0  0  0  0  0
    5.8949   -0.4085    0.0000 C   0  0  0  0  0  0  0  0  0  0  0  0
    7.3897   -0.2842    0.0000 C   0  0  0  0  0  0  0  0  0  0  0  0
    8.2448   -1.5168    0.0000 N   0  0  0  0  0  0  0  0  0  0  0  0
    7.6048   -2.8736    0.0000 C   0  0  0  0  0  0  0  0  0  0  0  0
    6.1100   -2.9976    0.0000 C   0  0  0  0  0  0  0  0  0  0  0  0
   -5.1450   -3.4402    0.0000 C   0  0  0  0  0  0  0  0  0  0  0  0
   -6.4274   -2.6620    0.0000 C   0  0  0  0  0  0  0  0  0  0  0  0
   -6.3946   -1.1624    0.0000 Cl  0  0  0  0  0  0  0  0  0  0  0  0
   -7.7425   -3.3834    0.0000 C   0  0  0  0  0  0  0  0  0  0  0  0
   -7.7753   -4.8830    0.0000 C   0  0  0  0  0  0  0  0  0  0  0  0
   -6.4929   -5.6613    0.0000 C   0  0  0  0  0  0  0  0  0  0  0  0
   -6.5259   -7.1609    0.0000 F   0  0  0  0  0  0  0  0  0  0  0  0
   -5.1780   -4.9399    0.0000 C   0  0  0  0  0  0  0  0  0  0  0  0
   -3.8956   -5.7181    0.0000 Cl  0  0  0  0  0  0  0  0  0  0  0  0
  1  2  1  0  0  0  0
  2  3  1  0  0  0  0
  2 22  1  0  0  0  0
  3  4  1  0  0  0  0
  5  4  2  0  0  0  0
  4  9  1  0  0  0  0
  6  5  1  0  0  0  0
  7  6  2  0  0  0  0
  6 11  1  0  0  0  0
  8  7  1  0  0  0  0
  9  8  2  0  0  0  0
  9 10  1  0  0  0  0
 12 11  1  0  0  0  0
 11 15  2  0  0  0  0
 13 12  2  0  0  0  0
 14 13  1  0  0  0  0
 15 14  1  0  0  0  0
 14 16  1  0  0  0  0
 17 16  1  0  0  0  0
 16 21  1  0  0  0  0
 18 17  1  0  0  0  0
 19 18  1  0  0  0  0
 20 19  1  0  0  0  0
 21 20  1  0  0  0  0
 23 22  2  0  0  0  0
 22 29  1  0  0  0  0
 23 24  1  0  0  0  0
 25 23  1  0  0  0  0
 26 25  2  0  0  0  0
 27 26  1  0  0  0  0
 27 28  1  0  0  0  0
 29 27  2  0  0  0  0
 29 30  1  0  0  0  0
M  END
> <Inchi_key>
KTEIFNKAUNYNJU-UHFFFAOYSA-N

> <Source>
Mulliner

> <ID>
HT0556

> <H_MFHB>
0

> <CAS>


> <Cholestasis>


> <Name>
crizotinib

> <Class>
0

$$$$