

  -INDIGO-08031710012D

 27 29  0  0  0  0  0  0  0  0999 V2000
    0.1224   -0.4569    0.0000 C   0  0  0  0  0  0  0  0  0  0  0  0
    1.4214    0.2932    0.0000 C   0  0  0  0  0  0  0  0  0  0  0  0
    1.4214    1.7932    0.0000 O   0  0  0  0  0  0  0  0  0  0  0  0
    2.7206   -0.4569    0.0000 O   0  0  0  0  0  0  0  0  0  0  0  0
    4.0196    0.2932    0.0000 C   0  0  0  0  0  0  0  0  0  0  0  0
    4.0196    1.7932    0.0000 C   0  0  0  0  0  0  0  0  0  0  0  0
    5.3186    2.5431    0.0000 C   0  0  0  0  0  0  0  0  0  0  0  0
    6.6175    1.7932    0.0000 C   0  0  0  0  0  0  0  0  0  0  0  0
    6.6175    0.2932    0.0000 C   0  0  0  0  0  0  0  0  0  0  0  0
    5.3186   -0.4569    0.0000 C   0  0  0  0  0  0  0  0  0  0  0  0
    7.9168    2.5431    0.0000 C   0  0  0  0  0  0  0  0  0  0  0  0
    9.2158    1.7932    0.0000 C   0  0  0  0  0  0  0  0  0  0  0  0
    9.2158    0.2932    0.0000 C   0  0  0  0  0  0  0  0  0  0  0  0
   10.5147   -0.4569    0.0000 C   0  0  0  0  0  0  0  0  0  0  0  0
   11.8137    0.2932    0.0000 C   0  0  0  0  0  0  0  0  0  0  0  0
   13.1127   -0.4569    0.0000 O   0  0  0  0  0  0  0  0  0  0  0  0
   14.4119    0.2932    0.0000 C   0  0  0  0  0  0  0  0  0  0  0  0
   15.7109   -0.4569    0.0000 O   0  0  0  0  0  0  0  0  0  0  0  0
   14.4119    1.7932    0.0000 C   0  0  0  0  0  0  0  0  0  0  0  0
   11.8137    1.7932    0.0000 C   0  0  0  0  0  0  0  0  0  0  0  0
   10.5147    2.5431    0.0000 C   0  0  0  0  0  0  0  0  0  0  0  0
    7.9168    4.0431    0.0000 C   0  0  0  0  0  0  0  0  0  0  0  0
    6.6175    4.7932    0.0000 C   0  0  0  0  0  0  0  0  0  0  0  0
    6.6175    6.2932    0.0000 C   0  0  0  0  0  0  0  0  0  0  0  0
    7.9168    7.0431    0.0000 C   0  0  0  0  0  0  0  0  0  0  0  0
    9.2158    6.2932    0.0000 C   0  0  0  0  0  0  0  0  0  0  0  0
    9.2158    4.7932    0.0000 N   0  0  0  0  0  0  0  0  0  0  0  0
  1  2  1  0  0  0  0
  2  3  2  0  0  0  0
  2  4  1  0  0  0  0
  4  5  1  0  0  0  0
  6  5  2  0  0  0  0
  5 10  1  0  0  0  0
  7  6  1  0  0  0  0
  8  7  2  0  0  0  0
  9  8  1  0  0  0  0
  8 11  1  0  0  0  0
 10  9  2  0  0  0  0
 11 12  1  0  0  0  0
 11 22  1  0  0  0  0
 13 12  2  0  0  0  0
 12 21  1  0  0  0  0
 14 13  1  0  0  0  0
 15 14  2  0  0  0  0
 15 16  1  0  0  0  0
 20 15  1  0  0  0  0
 16 17  1  0  0  0  0
 17 18  2  0  0  0  0
 17 19  1  0  0  0  0
 21 20  2  0  0  0  0
 23 22  2  0  0  0  0
 22 27  1  0  0  0  0
 24 23  1  0  0  0  0
 25 24  2  0  0  0  0
 26 25  1  0  0  0  0
 27 26  2  0  0  0  0
M  END
> <Inchi_key>
KHOITXIGCFIULA-UHFFFAOYSA-N

> <Source>
Mulliner , Kotsampasakou

> <ID>
EK0066;HT0290

> <H_MFHB>
0

> <CAS>


> <Cholestasis>
0

> <Name>
bisacodyl

> <Class>
0


$$$$