

  -INDIGO-08031710012D

 30 35  0  0  0  0  0  0  0  0999 V2000
    8.6001   -2.0905    0.0000 C   0  0  0  0  0  0  0  0  0  0  0  0
    7.7769   -3.3342    0.0000 C   0  0  0  0  0  0  0  0  0  0  0  0
    8.3036   -4.7508    0.0000 C   0  0  0  0  0  0  0  0  0  0  0  0
    9.7330   -5.1834    0.0000 O   0  0  0  0  0  0  0  0  0  0  0  0
    7.0764   -5.6180    0.0000 O   0  0  0  0  0  0  0  0  0  0  0  0
    5.7794   -4.8667    0.0000 C   0  0  0  0  0  0  0  0  0  0  0  0
    4.2664   -4.8355    0.0000 C   0  0  0  0  0  0  0  0  0  0  0  0
    3.7624   -3.3583    0.0000 C   0  0  0  0  0  0  0  0  0  0  0  0
    3.5256   -4.7431    0.0000 C   0  0  0  0  0  0  0  0  0  0  0  0
    4.9969   -5.2430    0.0000 O   0  0  0  0  0  0  0  0  0  0  0  0
    5.8772   -4.0185    0.0000 C   0  0  0  0  0  0  0  0  0  0  0  0
    7.3708   -4.0975    0.0000 O   0  0  0  0  0  0  0  0  0  0  0  0
    5.0177   -2.6823    0.0000 C   0  0  0  0  0  0  0  0  0  0  0  0
    4.6545   -1.1900    0.0000 O   0  0  0  0  0  0  0  0  0  0  0  0
    3.1581   -1.0829    0.0000 C   0  0  0  0  0  0  0  0  0  0  0  0
    2.0197   -0.1111    0.0000 O   0  0  0  0  0  0  0  0  0  0  0  0
    0.7399   -0.8833    0.0000 C   0  0  0  0  0  0  0  0  0  0  0  0
   -0.6427   -0.2972    0.0000 O   0  0  0  0  0  0  0  0  0  0  0  0
    1.0845   -2.3401    0.0000 C   0  0  0  0  0  0  0  0  0  0  0  0
    0.5402   -3.7488    0.0000 O   0  0  0  0  0  0  0  0  0  0  0  0
    2.5580   -2.4958    0.0000 C   0  0  0  0  0  0  0  0  0  0  0  0
    1.4047   -3.4922    0.0000 C   0  0  0  0  0  0  0  0  0  0  0  0
    1.9969   -4.8952    0.0000 C   0  0  0  0  0  0  0  0  0  0  0  0
    1.2292   -6.1793    0.0000 O   0  0  0  0  0  0  0  0  0  0  0  0
   -0.1148   -3.4889    0.0000 C   0  0  0  0  0  0  0  0  0  0  0  0
   -0.0707   -5.0286    0.0000 C   0  0  0  0  0  0  0  0  0  0  0  0
   -0.1797   -2.0301    0.0000 C   0  0  0  0  0  0  0  0  0  0  0  0
   -1.6105   -3.5834    0.0000 C   0  0  0  0  0  0  0  0  0  0  0  0
    6.2684   -3.4192    0.0000 C   0  0  0  0  0  0  0  0  0  0  0  0
    6.6290   -1.9577    0.0000 O   0  0  0  0  0  0  0  0  0  0  0  0
  1  2  1  0  0  0  0
  3  2  1  0  0  0  0
  2 29  1  0  0  0  0
  3  4  2  0  0  0  0
  5  3  1  0  0  0  0
  6  5  1  0  0  0  0
  7  6  1  0  0  0  0
  6 29  1  0  0  0  0
  8  7  1  0  0  0  0
  9  8  1  0  0  0  0
  8 13  1  0  0  0  0
  8 21  1  0  0  0  0
  9 10  1  0  0  0  0
 23  9  1  0  0  0  0
 10 11  1  0  0  0  0
 11 12  2  0  0  0  0
 11 13  1  0  0  0  0
 13 14  1  0  0  0  0
 29 13  1  0  0  0  0
 14 15  1  0  0  0  0
 16 15  1  0  0  0  0
 15 21  1  0  0  0  0
 17 16  1  0  0  0  0
 17 18  2  0  0  0  0
 19 17  1  0  0  0  0
 19 20  1  0  0  0  0
 21 19  1  0  0  0  0
 21 22  1  0  0  0  0
 22 23  1  0  0  0  0
 22 25  1  0  0  0  0
 23 24  1  0  0  0  0
 25 26  1  0  0  0  0
 25 27  1  0  0  0  0
 25 28  1  0  0  0  0
 29 30  1  0  0  0  0
M  END
> <Inchi_key>
LMEHVEUFNRJAAV-UHFFFAOYSA-N

> <Source>
Mulliner

> <ID>
HT0978

> <H_MFHB>
0

> <CAS>


> <Cholestasis>


> <Name>
ginkgolide-j

> <Class>
0


$$$$