

  -INDIGO-08031710012D

 22 22  0  0  0  0  0  0  0  0999 V2000
   20.1100    5.3885    0.0000 C   0  0  0  0  0  0  0  0  0  0  0  0
   18.8111    4.6385    0.0000 C   0  0  0  0  0  0  0  0  0  0  0  0
   17.5119    5.3885    0.0000 C   0  0  0  0  0  0  0  0  0  0  0  0
   16.2130    4.6385    0.0000 C   0  0  0  0  0  0  0  0  0  0  0  0
   14.9138    5.3885    0.0000 C   0  0  0  0  0  0  0  0  0  0  0  0
   13.6149    4.6385    0.0000 C   0  0  0  0  0  0  0  0  0  0  0  0
   12.3157    5.3885    0.0000 C   0  0  0  0  0  0  0  0  0  0  0  0
   11.0168    4.6385    0.0000 C   0  0  0  0  0  0  0  0  0  0  0  0
    9.7176    5.3885    0.0000 C   0  0  0  0  0  0  0  0  0  0  0  0
    9.7176    6.8885    0.0000 C   0  0  0  0  0  0  0  0  0  0  0  0
    8.4187    7.6385    0.0000 C   0  0  0  0  0  0  0  0  0  0  0  0
    7.1195    6.8885    0.0000 C   0  0  0  0  0  0  0  0  0  0  0  0
    5.8206    7.6385    0.0000 C   0  0  0  0  0  0  0  0  0  0  0  0
    4.5214    6.8885    0.0000 C   0  0  0  0  0  0  0  0  0  0  0  0
    3.2225    7.6385    0.0000 C   0  0  0  0  0  0  0  0  0  0  0  0
    3.9724    8.9375    0.0000 N   0  0  0  0  0  0  0  0  0  0  0  0
    1.9236    8.3885    0.0000 C   0  0  0  0  0  0  0  0  0  0  0  0
    1.9236    9.8885    0.0000 O   0  0  0  0  0  0  0  0  0  0  0  0
    2.4726    6.3394    0.0000 C   0  0  0  0  0  0  0  0  0  0  0  0
    0.9725    6.3394    0.0000 O   0  0  0  0  0  0  0  0  0  0  0  0
    7.1195    5.3885    0.0000 C   0  0  0  0  0  0  0  0  0  0  0  0
    8.4187    4.6385    0.0000 C   0  0  0  0  0  0  0  0  0  0  0  0
  1  2  1  0  0  0  0
  2  3  1  0  0  0  0
  3  4  1  0  0  0  0
  4  5  1  0  0  0  0
  5  6  1  0  0  0  0
  6  7  1  0  0  0  0
  7  8  1  0  0  0  0
  8  9  1  0  0  0  0
 10  9  2  0  0  0  0
  9 22  1  0  0  0  0
 11 10  1  0  0  0  0
 12 11  2  0  0  0  0
 12 13  1  0  0  0  0
 21 12  1  0  0  0  0
 13 14  1  0  0  0  0
 14 15  1  0  0  0  0
 15 16  1  0  0  0  0
 15 17  1  0  0  0  0
 15 19  1  0  0  0  0
 17 18  1  0  0  0  0
 19 20  1  0  0  0  0
 22 21  2  0  0  0  0
M  END
> <Inchi_key>
KKGQTZUTZRNORY-UHFFFAOYSA-N

> <Source>
Mulliner

> <ID>
HT0877

> <H_MFHB>
0

> <CAS>


> <Cholestasis>


> <Name>
fingolimod hydrochloride

> <Class>
0


$$$$