

  -INDIGO-08031710012D

 26 28  0  0  0  0  0  0  0  0999 V2000
    1.2054    0.7852    0.0000 C   0  0  0  0  0  0  0  0  0  0  0  0
    0.5991   -0.5868    0.0000 C   0  0  0  0  0  0  0  0  0  0  0  0
    1.4840   -1.7979    0.0000 O   0  0  0  0  0  0  0  0  0  0  0  0
    0.8777   -3.1699    0.0000 C   0  0  0  0  0  0  0  0  0  0  0  0
   -0.6135   -3.3308    0.0000 O   0  0  0  0  0  0  0  0  0  0  0  0
    1.7627   -4.3811    0.0000 C   0  0  0  0  0  0  0  0  0  0  0  0
    2.4241   -5.7275    0.0000 C   0  0  0  0  0  0  0  0  0  0  0  0
    3.9206   -5.8279    0.0000 C   0  0  0  0  0  0  0  0  0  0  0  0
    4.7561   -4.5821    0.0000 N   0  0  0  0  0  0  0  0  0  0  0  0
    6.2526   -4.6825    0.0000 C   0  0  0  0  0  0  0  0  0  0  0  0
    6.9141   -6.0289    0.0000 C   0  0  0  0  0  0  0  0  0  0  0  0
    8.4106   -6.1295    0.0000 C   0  0  0  0  0  0  0  0  0  0  0  0
    9.2458   -4.8835    0.0000 C   0  0  0  0  0  0  0  0  0  0  0  0
   10.7426   -4.9840    0.0000 C   0  0  0  0  0  0  0  0  0  0  0  0
   11.4038   -6.3305    0.0000 C   0  0  0  0  0  0  0  0  0  0  0  0
   12.9005   -6.4309    0.0000 N   0  0  0  0  0  0  0  0  0  0  0  0
   10.5685   -7.5763    0.0000 C   0  0  0  0  0  0  0  0  0  0  0  0
    9.0720   -7.4757    0.0000 C   0  0  0  0  0  0  0  0  0  0  0  0
    4.0947   -3.2356    0.0000 C   0  0  0  0  0  0  0  0  0  0  0  0
    2.5982   -3.1351    0.0000 C   0  0  0  0  0  0  0  0  0  0  0  0
    0.5517   -5.2661    0.0000 C   0  0  0  0  0  0  0  0  0  0  0  0
   -0.8204   -4.6597    0.0000 C   0  0  0  0  0  0  0  0  0  0  0  0
   -2.0314   -5.5447    0.0000 C   0  0  0  0  0  0  0  0  0  0  0  0
   -1.8705   -7.0361    0.0000 C   0  0  0  0  0  0  0  0  0  0  0  0
   -0.4985   -7.6424    0.0000 C   0  0  0  0  0  0  0  0  0  0  0  0
    0.7126   -6.7574    0.0000 C   0  0  0  0  0  0  0  0  0  0  0  0
  1  2  1  0  0  0  0
  2  3  1  0  0  0  0
  3  4  1  0  0  0  0
  4  5  2  0  0  0  0
  4  6  1  0  0  0  0
  7  6  1  0  0  0  0
  6 20  1  0  0  0  0
  6 21  1  0  0  0  0
  8  7  1  0  0  0  0
  9  8  1  0  0  0  0
  9 10  1  0  0  0  0
 19  9  1  0  0  0  0
 10 11  1  0  0  0  0
 11 12  1  0  0  0  0
 13 12  2  0  0  0  0
 12 18  1  0  0  0  0
 14 13  1  0  0  0  0
 15 14  2  0  0  0  0
 15 16  1  0  0  0  0
 17 15  1  0  0  0  0
 18 17  2  0  0  0  0
 20 19  1  0  0  0  0
 22 21  2  0  0  0  0
 21 26  1  0  0  0  0
 23 22  1  0  0  0  0
 24 23  2  0  0  0  0
 25 24  1  0  0  0  0
 26 25  2  0  0  0  0
M  END
> <Inchi_key>
LKYQLAWMNBFNJT-UHFFFAOYSA-N

> <Source>
Mulliner , Kotsampasakou

> <ID>
EK0036;HT0160

> <H_MFHB>
0

> <CAS>


> <Cholestasis>
0

> <Name>
anileridine;anileridine hcl

> <Class>
0


$$$$