
  -INDIGO-08031710012D

 33 36  0  0  0  0  0  0  0  0999 V2000
   10.8345  -10.8044    0.0000 C   0  0  0  0  0  0  0  0  0  0  0  0
   10.8303   -9.3044    0.0000 C   0  0  0  0  0  0  0  0  0  0  0  0
    9.5292   -8.5580    0.0000 N   0  0  0  0  0  0  0  0  0  0  0  0
    9.5250   -7.0580    0.0000 C   0  0  0  0  0  0  0  0  0  0  0  0
   10.8219   -6.3044    0.0000 O   0  0  0  0  0  0  0  0  0  0  0  0
    8.2240   -6.3117    0.0000 N   0  0  0  0  0  0  0  0  0  0  0  0
    8.2197   -4.8118    0.0000 C   0  0  0  0  0  0  0  0  0  0  0  0
    9.5167   -4.0581    0.0000 C   0  0  0  0  0  0  0  0  0  0  0  0
    9.5124   -2.5581    0.0000 C   0  0  0  0  0  0  0  0  0  0  0  0
   10.8096   -1.8045    0.0000 N   0  0  0  0  0  0  0  0  0  0  0  0
   10.8053   -0.3045    0.0000 C   0  0  0  0  0  0  0  0  0  0  0  0
   12.1106   -2.5508    0.0000 C   0  0  0  0  0  0  0  0  0  0  0  0
    6.9270   -7.0652    0.0000 C   0  0  0  0  0  0  0  0  0  0  0  0
    6.9313   -8.5654    0.0000 O   0  0  0  0  0  0  0  0  0  0  0  0
    5.6260   -6.3189    0.0000 C   0  0  0  0  0  0  0  0  0  0  0  0
    4.3288   -7.0724    0.0000 C   0  0  0  0  0  0  0  0  0  0  0  0
    3.0195   -6.2938    0.0000 C   0  0  0  0  0  0  0  0  0  0  0  0
    3.0316   -4.8307    0.0000 C   0  0  0  0  0  0  0  0  0  0  0  0
    1.7654   -4.0893    0.0000 C   0  0  0  0  0  0  0  0  0  0  0  0
    0.4910   -4.8134    0.0000 C   0  0  0  0  0  0  0  0  0  0  0  0
   -0.9234   -4.3225    0.0000 C   0  0  0  0  0  0  0  0  0  0  0  0
   -1.8576   -5.9378    0.0000 N   0  0  0  0  0  0  0  0  0  0  0  0
   -0.7919   -7.0063    0.0000 C   0  0  0  0  0  0  0  0  0  0  0  0
   -0.7976   -8.4780    0.0000 C   0  0  0  0  0  0  0  0  0  0  0  0
    0.4716   -9.2181    0.0000 C   0  0  0  0  0  0  0  0  0  0  0  0
    1.7387   -8.4878    0.0000 C   0  0  0  0  0  0  0  0  0  0  0  0
    1.7500   -7.0253    0.0000 C   0  0  0  0  0  0  0  0  0  0  0  0
    0.4848   -6.2819    0.0000 C   0  0  0  0  0  0  0  0  0  0  0  0
    4.3205   -4.0725    0.0000 N   0  0  0  0  0  0  0  0  0  0  0  0
    4.3124   -2.5725    0.0000 C   0  0  0  0  0  0  0  0  0  0  0  0
    3.0095   -1.8296    0.0000 C   0  0  0  0  0  0  0  0  0  0  0  0
    3.0014   -0.3297    0.0000 C   0  0  0  0  0  0  0  0  0  0  0  0
    5.6217   -4.8190    0.0000 C   0  0  0  0  0  0  0  0  0  0  0  0
  1  2  1  0  0  0  0
  2  3  1  0  0  0  0
  3  4  1  0  0  0  0
  4  5  2  0  0  0  0
  4  6  1  0  0  0  0
  6  7  1  0  0  0  0
  6 13  1  0  0  0  0
  7  8  1  0  0  0  0
  8  9  1  0  0  0  0
  9 10  1  0  0  0  0
 10 11  1  0  0  0  0
 10 12  1  0  0  0  0
 13 14  2  0  0  0  0
 13 15  1  0  0  0  0
 16 15  1  0  0  0  0
 15 33  1  0  0  0  0
 17 16  1  0  0  0  0
 17 18  1  0  0  0  0
 27 17  1  0  0  0  0
 18 19  1  0  0  0  0
 29 18  1  0  0  0  0
 19 20  1  0  0  0  0
 21 20  2  0  0  0  0
 20 28  1  0  0  0  0
 22 21  1  0  0  0  0
 23 22  1  0  0  0  0
 24 23  1  0  0  0  0
 23 28  2  0  0  0  0
 25 24  2  0  0  0  0
 26 25  1  0  0  0  0
 27 26  2  0  0  0  0
 28 27  1  0  0  0  0
 29 30  1  0  0  0  0
 33 29  1  0  0  0  0
 30 31  1  0  0  0  0
 31 32  2  0  0  0  0
M  END
> <Inchi_key>
KORNTPPJEAJQIU-UHFFFAOYSA-N

> <Source>
Mulliner , Kotsampasakou

> <ID>
EK0081;HT0345

> <H_MFHB>
0

> <CAS>


> <Cholestasis>
0

> <Name>
cabergoline

> <Class>
0

$$$$