
  -INDIGO-08031710012D

 26 29  0  0  0  0  0  0  0  0999 V2000
    1.9529    5.8464    0.0000 O   0  0  0  0  0  0  0  0  0  0  0  0
    2.5922    4.4894    0.0000 C   0  0  0  0  0  0  0  0  0  0  0  0
    4.0869    4.3646    0.0000 O   0  0  0  0  0  0  0  0  0  0  0  0
    1.7368    3.2573    0.0000 C   0  0  0  0  0  0  0  0  0  0  0  0
    2.3761    1.9004    0.0000 N   0  0  0  0  0  0  0  0  0  0  0  0
    3.8496    1.6200    0.0000 C   0  0  0  0  0  0  0  0  0  0  0  0
    4.0383    0.1319    0.0000 C   0  0  0  0  0  0  0  0  0  0  0  0
    5.3530   -0.5900    0.0000 C   0  0  0  0  0  0  0  0  0  0  0  0
    6.6358    0.1876    0.0000 C   0  0  0  0  0  0  0  0  0  0  0  0
    8.0190   -0.3930    0.0000 N   0  0  0  0  0  0  0  0  0  0  0  0
    8.9986    0.7428    0.0000 C   0  0  0  0  0  0  0  0  0  0  0  0
   10.4980    0.7750    0.0000 C   0  0  0  0  0  0  0  0  0  0  0  0
   11.2757   -0.5076    0.0000 F   0  0  0  0  0  0  0  0  0  0  0  0
   11.2201    2.0898    0.0000 C   0  0  0  0  0  0  0  0  0  0  0  0
   12.7198    2.1220    0.0000 F   0  0  0  0  0  0  0  0  0  0  0  0
   10.4424    3.3725    0.0000 C   0  0  0  0  0  0  0  0  0  0  0  0
    8.9428    3.3404    0.0000 C   0  0  0  0  0  0  0  0  0  0  0  0
    8.1653    4.6231    0.0000 F   0  0  0  0  0  0  0  0  0  0  0  0
    8.2209    2.0256    0.0000 C   0  0  0  0  0  0  0  0  0  0  0  0
    6.7606    1.6824    0.0000 S   0  0  0  0  0  0  0  0  0  0  0  0
    2.6814   -0.5074    0.0000 C   0  0  0  0  0  0  0  0  0  0  0  0
    2.2486   -1.9437    0.0000 C   0  0  0  0  0  0  0  0  0  0  0  0
    0.7883   -2.2868    0.0000 C   0  0  0  0  0  0  0  0  0  0  0  0
   -0.2390   -1.1938    0.0000 C   0  0  0  0  0  0  0  0  0  0  0  0
    0.1938    0.2423    0.0000 C   0  0  0  0  0  0  0  0  0  0  0  0
    1.6541    0.5856    0.0000 C   0  0  0  0  0  0  0  0  0  0  0  0
  1  2  1  0  0  0  0
  2  3  2  0  0  0  0
  2  4  1  0  0  0  0
  4  5  1  0  0  0  0
  6  5  1  0  0  0  0
  5 26  1  0  0  0  0
  7  6  2  0  0  0  0
  7  8  1  0  0  0  0
 21  7  1  0  0  0  0
  8  9  1  0  0  0  0
 10  9  2  0  0  0  0
  9 20  1  0  0  0  0
 11 10  1  0  0  0  0
 12 11  2  0  0  0  0
 11 19  1  0  0  0  0
 12 13  1  0  0  0  0
 14 12  1  0  0  0  0
 14 15  1  0  0  0  0
 16 14  2  0  0  0  0
 17 16  1  0  0  0  0
 17 18  1  0  0  0  0
 19 17  2  0  0  0  0
 20 19  1  0  0  0  0
 22 21  1  0  0  0  0
 21 26  2  0  0  0  0
 23 22  2  0  0  0  0
 24 23  1  0  0  0  0
 25 24  2  0  0  0  0
 26 25  1  0  0  0  0
M  END
> <Inchi_key>
KYHVTMFADJNSGS-UHFFFAOYSA-N

> <Source>
Mulliner

> <ID>
HT1209

> <H_MFHB>
0

> <CAS>
245116-90-9

> <Cholestasis>


> <Name>
lidorestat

> <Class>
0

$$$$