
  -INDIGO-08031710012D

 27 27  0  0  0  0  0  0  0  0999 V2000
    2.5833   -1.4915    0.0000 O   0  0  0  0  0  0  0  0  0  0  0  0
    1.8332   -0.1925    0.0000 C   0  0  0  0  0  0  0  0  0  0  0  0
    2.5833    1.1066    0.0000 C   0  0  0  0  0  0  0  0  0  0  0  0
    4.0834    1.1066    0.0000 C   0  0  0  0  0  0  0  0  0  0  0  0
    4.8332   -0.1925    0.0000 O   0  0  0  0  0  0  0  0  0  0  0  0
    6.3334   -0.1925    0.0000 C   0  0  0  0  0  0  0  0  0  0  0  0
    7.0832   -1.4915    0.0000 O   0  0  0  0  0  0  0  0  0  0  0  0
    7.0832    1.1066    0.0000 C   0  0  0  0  0  0  0  0  0  0  0  0
    8.5833    1.1066    0.0000 C   0  0  0  0  0  0  0  0  0  0  0  0
    9.3334    2.4057    0.0000 C   0  0  0  0  0  0  0  0  0  0  0  0
    8.5833    3.7048    0.0000 O   0  0  0  0  0  0  0  0  0  0  0  0
   10.8333    2.4057    0.0000 O   0  0  0  0  0  0  0  0  0  0  0  0
    1.8332    2.4057    0.0000 N   0  0  0  0  0  0  0  0  0  0  0  0
    2.5833    3.7048    0.0000 C   0  0  0  0  0  0  0  0  0  0  0  0
    4.0834    3.7048    0.0000 O   0  0  0  0  0  0  0  0  0  0  0  0
    1.8332    5.0037    0.0000 C   0  0  0  0  0  0  0  0  0  0  0  0
    0.3333    5.0037    0.0000 Cl  0  0  0  0  0  0  0  0  0  0  0  0
    2.5833    6.3027    0.0000 Cl  0  0  0  0  0  0  0  0  0  0  0  0
    0.3333   -0.1925    0.0000 C   0  0  0  0  0  0  0  0  0  0  0  0
   -0.4168    1.1066    0.0000 C   0  0  0  0  0  0  0  0  0  0  0  0
   -1.9167    1.1066    0.0000 C   0  0  0  0  0  0  0  0  0  0  0  0
   -2.6667   -0.1925    0.0000 C   0  0  0  0  0  0  0  0  0  0  0  0
   -1.9167   -1.4915    0.0000 C   0  0  0  0  0  0  0  0  0  0  0  0
   -0.4168   -1.4915    0.0000 C   0  0  0  0  0  0  0  0  0  0  0  0
   -4.1666   -0.1925    0.0000 N   0  0  0  0  0  0  0  0  0  0  0  0
   -4.9167   -1.4915    0.0000 O   0  0  0  0  0  0  0  0  0  0  0  0
   -4.9167    1.1066    0.0000 O   0  0  0  0  0  0  0  0  0  0  0  0
  1  2  1  0  0  0  0
  2  3  1  0  0  0  0
  2 19  1  0  0  0  0
  3  4  1  0  0  0  0
  3 13  1  0  0  0  0
  4  5  1  0  0  0  0
  5  6  1  0  0  0  0
  6  7  2  0  0  0  0
  6  8  1  0  0  0  0
  8  9  1  0  0  0  0
  9 10  1  0  0  0  0
 10 11  2  0  0  0  0
 10 12  1  0  0  0  0
 13 14  1  0  0  0  0
 14 15  2  0  0  0  0
 14 16  1  0  0  0  0
 16 17  1  0  0  0  0
 16 18  1  0  0  0  0
 20 19  2  0  0  0  0
 19 24  1  0  0  0  0
 21 20  1  0  0  0  0
 22 21  2  0  0  0  0
 23 22  1  0  0  0  0
 22 25  1  0  0  0  0
 24 23  2  0  0  0  0
 25 26  2  0  0  0  0
 25 27  1  0  0  0  0
M  CHG  2  25   1  27  -1
M  END
> <Inchi_key>
LIRCDOVJWUGTMW-UHFFFAOYSA-N

> <Source>
Mulliner

> <ID>
HT0446

> <H_MFHB>
0

> <CAS>
982-57-0

> <Cholestasis>


> <Name>
chloramphenicol sodium succinate

> <Class>
0

$$$$