
  -INDIGO-08031710012D

 24 26  0  0  0  0  0  0  0  0999 V2000
   13.9217   -1.6512    0.0000 Cl  0  0  0  0  0  0  0  0  0  0  0  0
   12.4217   -1.6512    0.0000 C   0  0  0  0  0  0  0  0  0  0  0  0
   11.6717   -0.3523    0.0000 C   0  0  0  0  0  0  0  0  0  0  0  0
   10.1717   -0.3523    0.0000 C   0  0  0  0  0  0  0  0  0  0  0  0
    9.4217   -1.6512    0.0000 C   0  0  0  0  0  0  0  0  0  0  0  0
    7.9217   -1.6512    0.0000 C   0  0  0  0  0  0  0  0  0  0  0  0
    7.1717   -0.3523    0.0000 O   0  0  0  0  0  0  0  0  0  0  0  0
    5.6717   -0.3523    0.0000 C   0  0  0  0  0  0  0  0  0  0  0  0
    4.9217    0.9469    0.0000 C   0  0  0  0  0  0  0  0  0  0  0  0
    5.6717    2.2458    0.0000 N   0  0  0  0  0  0  0  0  0  0  0  0
    5.0616    3.6162    0.0000 C   0  0  0  0  0  0  0  0  0  0  0  0
    6.1762    4.6199    0.0000 C   0  0  0  0  0  0  0  0  0  0  0  0
    7.4754    3.8699    0.0000 N   0  0  0  0  0  0  0  0  0  0  0  0
    7.1635    2.4027    0.0000 C   0  0  0  0  0  0  0  0  0  0  0  0
    4.9217   -1.6512    0.0000 C   0  0  0  0  0  0  0  0  0  0  0  0
    5.6717   -2.9504    0.0000 C   0  0  0  0  0  0  0  0  0  0  0  0
    4.9217   -4.2493    0.0000 C   0  0  0  0  0  0  0  0  0  0  0  0
    3.4217   -4.2493    0.0000 C   0  0  0  0  0  0  0  0  0  0  0  0
    2.6717   -5.5483    0.0000 Cl  0  0  0  0  0  0  0  0  0  0  0  0
    2.6717   -2.9504    0.0000 C   0  0  0  0  0  0  0  0  0  0  0  0
    3.4217   -1.6512    0.0000 C   0  0  0  0  0  0  0  0  0  0  0  0
    2.6717   -0.3523    0.0000 Cl  0  0  0  0  0  0  0  0  0  0  0  0
   10.1717   -2.9504    0.0000 C   0  0  0  0  0  0  0  0  0  0  0  0
   11.6717   -2.9504    0.0000 C   0  0  0  0  0  0  0  0  0  0  0  0
  1  2  1  0  0  0  0
  3  2  2  0  0  0  0
  2 24  1  0  0  0  0
  4  3  1  0  0  0  0
  5  4  2  0  0  0  0
  5  6  1  0  0  0  0
 23  5  1  0  0  0  0
  6  7  1  0  0  0  0
  7  8  1  0  0  0  0
  8  9  1  0  0  0  0
  8 15  1  0  0  0  0
  9 10  1  0  0  0  0
 11 10  1  0  0  0  0
 10 14  1  0  0  0  0
 12 11  2  0  0  0  0
 13 12  1  0  0  0  0
 14 13  2  0  0  0  0
 16 15  2  0  0  0  0
 15 21  1  0  0  0  0
 17 16  1  0  0  0  0
 18 17  2  0  0  0  0
 18 19  1  0  0  0  0
 20 18  1  0  0  0  0
 21 20  2  0  0  0  0
 21 22  1  0  0  0  0
 24 23  2  0  0  0  0
M  END
> <Inchi_key>
LEZWWPYKPKIXLL-UHFFFAOYSA-N

> <Source>
Mulliner , Kotsampasakou

> <ID>
EK0180;HT0741

> <H_MFHB>
0

> <CAS>
24169-02-6

> <Cholestasis>
0

> <Name>
econazole nitrate;econazole

> <Class>
0

$$$$