

  -INDIGO-08031710012D

 37 39  0  0  0  0  0  0  0  0999 V2000
    6.9201   -6.9771    0.0000 C   0  0  0  0  0  0  0  0  0  0  0  0
    6.9323   -5.4774    0.0000 C   0  0  0  0  0  0  0  0  0  0  0  0
    6.9447   -3.9773    0.0000 C   0  0  0  0  0  0  0  0  0  0  0  0
    8.4323   -5.4896    0.0000 C   0  0  0  0  0  0  0  0  0  0  0  0
    5.4325   -5.4649    0.0000 N   0  0  0  0  0  0  0  0  0  0  0  0
    4.6718   -6.7577    0.0000 C   0  0  0  0  0  0  0  0  0  0  0  0
    5.4109   -8.0630    0.0000 O   0  0  0  0  0  0  0  0  0  0  0  0
    3.1717   -6.7454    0.0000 N   0  0  0  0  0  0  0  0  0  0  0  0
    2.4111   -8.0383    0.0000 C   0  0  0  0  0  0  0  0  0  0  0  0
    0.9113   -8.0258    0.0000 C   0  0  0  0  0  0  0  0  0  0  0  0
    0.1506   -9.3187    0.0000 O   0  0  0  0  0  0  0  0  0  0  0  0
    0.1719   -6.7207    0.0000 N   0  0  0  0  0  0  0  0  0  0  0  0
    0.7933   -5.3550    0.0000 C   0  0  0  0  0  0  0  0  0  0  0  0
   -0.3133   -4.3419    0.0000 C   0  0  0  0  0  0  0  0  0  0  0  0
   -1.6188   -5.0814    0.0000 C   0  0  0  0  0  0  0  0  0  0  0  0
   -1.3190   -6.5515    0.0000 C   0  0  0  0  0  0  0  0  0  0  0  0
   -2.3318   -7.6581    0.0000 C   0  0  0  0  0  0  0  0  0  0  0  0
   -1.8801   -9.0882    0.0000 O   0  0  0  0  0  0  0  0  0  0  0  0
   -3.7963   -7.3339    0.0000 N   0  0  0  0  0  0  0  0  0  0  0  0
   -4.8094   -8.4404    0.0000 C   0  0  0  0  0  0  0  0  0  0  0  0
   -4.3574   -9.8708    0.0000 C   0  0  0  0  0  0  0  0  0  0  0  0
   -5.3704  -10.9771    0.0000 C   0  0  0  0  0  0  0  0  0  0  0  0
   -6.8690  -11.0434    0.0000 C   0  0  0  0  0  0  0  0  0  0  0  0
   -6.8028  -12.5419    0.0000 C   0  0  0  0  0  0  0  0  0  0  0  0
   -5.3042  -12.4758    0.0000 C   0  0  0  0  0  0  0  0  0  0  0  0
   -6.2739   -8.1165    0.0000 C   0  0  0  0  0  0  0  0  0  0  0  0
   -7.2867   -9.2228    0.0000 O   0  0  0  0  0  0  0  0  0  0  0  0
   -6.7257   -6.6861    0.0000 C   0  0  0  0  0  0  0  0  0  0  0  0
   -5.7129   -5.5796    0.0000 O   0  0  0  0  0  0  0  0  0  0  0  0
   -8.1902   -6.3622    0.0000 N   0  0  0  0  0  0  0  0  0  0  0  0
   -1.6064   -3.5815    0.0000 C   0  0  0  0  0  0  0  0  0  0  0  0
   -2.9535   -2.9216    0.0000 C   0  0  0  0  0  0  0  0  0  0  0  0
   -1.3500   -2.1035    0.0000 C   0  0  0  0  0  0  0  0  0  0  0  0
    3.1504   -9.3434    0.0000 C   0  0  0  0  0  0  0  0  0  0  0  0
    3.8898  -10.6485    0.0000 C   0  0  0  0  0  0  0  0  0  0  0  0
    1.8452  -10.0826    0.0000 C   0  0  0  0  0  0  0  0  0  0  0  0
    4.4557   -8.6040    0.0000 C   0  0  0  0  0  0  0  0  0  0  0  0
  1  2  1  0  0  0  0
  2  3  1  0  0  0  0
  2  4  1  0  0  0  0
  2  5  1  0  0  0  0
  5  6  1  0  0  0  0
  6  7  2  0  0  0  0
  6  8  1  0  0  0  0
  8  9  1  0  0  0  0
  9 10  1  0  0  0  0
  9 34  1  0  0  0  0
 10 11  2  0  0  0  0
 10 12  1  0  0  0  0
 13 12  1  0  0  0  0
 12 16  1  0  0  0  0
 14 13  1  0  0  0  0
 14 15  1  0  0  0  0
 31 14  1  0  0  0  0
 16 15  1  0  0  0  0
 15 31  1  0  0  0  0
 16 17  1  0  0  0  0
 17 18  2  0  0  0  0
 17 19  1  0  0  0  0
 19 20  1  0  0  0  0
 20 21  1  0  0  0  0
 20 26  1  0  0  0  0
 21 22  1  0  0  0  0
 23 22  1  0  0  0  0
 22 25  1  0  0  0  0
 24 23  1  0  0  0  0
 25 24  1  0  0  0  0
 26 27  2  0  0  0  0
 26 28  1  0  0  0  0
 28 29  2  0  0  0  0
 28 30  1  0  0  0  0
 31 32  1  0  0  0  0
 31 33  1  0  0  0  0
 34 35  1  0  0  0  0
 34 36  1  0  0  0  0
 34 37  1  0  0  0  0
M  END
> <Inchi_key>
LHHCSNFAOIFYRV-UHFFFAOYSA-N

> <Source>
Mulliner

> <ID>
HT0297

> <H_MFHB>
0

> <CAS>


> <Cholestasis>


> <Name>
boceprevir

> <Class>
0


$$$$