

  -INDIGO-08031709442D

 29 32  0  0  0  0  0  0  0  0999 V2000
    0.2121   -2.6418    0.0000 Cl  0  0  0  0  0  0  0  0  0  0  0  0
    1.6929   -2.4025    0.0000 C   0  0  0  0  0  0  0  0  0  0  0  0
    2.2259   -1.0004    0.0000 C   0  0  0  0  0  0  0  0  0  0  0  0
    1.2785    0.1623    0.0000 O   0  0  0  0  0  0  0  0  0  0  0  0
    3.7067   -0.7612    0.0000 C   0  0  0  0  0  0  0  0  0  0  0  0
    3.2229   -2.1810    0.0000 O   0  0  0  0  0  0  0  0  0  0  0  0
    5.1749   -1.0685    0.0000 C   0  0  0  0  0  0  0  0  0  0  0  0
    5.9210    0.2329    0.0000 C   0  0  0  0  0  0  0  0  0  0  0  0
    7.4210    0.2376    0.0000 C   0  0  0  0  0  0  0  0  0  0  0  0
    8.1669    1.5390    0.0000 C   0  0  0  0  0  0  0  0  0  0  0  0
    9.6669    1.5436    0.0000 C   0  0  0  0  0  0  0  0  0  0  0  0
   10.4128    2.8450    0.0000 F   0  0  0  0  0  0  0  0  0  0  0  0
   10.4209    0.2470    0.0000 C   0  0  0  0  0  0  0  0  0  0  0  0
   11.9208    0.2516    0.0000 C   0  0  0  0  0  0  0  0  0  0  0  0
   12.6751   -1.0451    0.0000 C   0  0  0  0  0  0  0  0  0  0  0  0
   14.1750   -1.0404    0.0000 O   0  0  0  0  0  0  0  0  0  0  0  0
   11.9289   -2.3464    0.0000 C   0  0  0  0  0  0  0  0  0  0  0  0
   10.4290   -2.3511    0.0000 C   0  0  0  0  0  0  0  0  0  0  0  0
    9.6750   -1.0544    0.0000 C   0  0  0  0  0  0  0  0  0  0  0  0
    8.9290   -2.3558    0.0000 C   0  0  0  0  0  0  0  0  0  0  0  0
    8.1750   -1.0591    0.0000 C   0  0  0  0  0  0  0  0  0  0  0  0
    6.6751   -1.0638    0.0000 F   0  0  0  0  0  0  0  0  0  0  0  0
    7.4291   -2.3605    0.0000 C   0  0  0  0  0  0  0  0  0  0  0  0
    8.1831   -3.6572    0.0000 O   0  0  0  0  0  0  0  0  0  0  0  0
    5.9291   -2.3651    0.0000 C   0  0  0  0  0  0  0  0  0  0  0  0
    4.9137    1.3445    0.0000 C   0  0  0  0  0  0  0  0  0  0  0  0
    3.5454    0.7301    0.0000 C   0  0  0  0  0  0  0  0  0  0  0  0
    2.2441    1.4761    0.0000 C   0  0  0  0  0  0  0  0  0  0  0  0
    4.3184   -2.2999    0.0000 C   0  0  0  0  0  0  0  0  0  0  0  0
  1  2  1  0  0  0  0
  2  3  1  0  0  0  0
  3  4  2  0  0  0  0
  3  5  1  0  0  0  0
  5  6  1  0  0  0  0
  7  5  1  0  0  0  0
  5 27  1  0  0  0  0
  7  8  1  0  0  0  0
 25  7  1  0  0  0  0
  7 29  1  0  0  0  0
  8  9  1  0  0  0  0
 26  8  1  0  0  0  0
 10  9  1  0  0  0  0
  9 21  1  0  0  0  0
 11 10  1  0  0  0  0
 11 12  1  0  0  0  0
 13 11  1  0  0  0  0
 14 13  2  0  0  0  0
 13 19  1  0  0  0  0
 15 14  1  0  0  0  0
 15 16  2  0  0  0  0
 17 15  1  0  0  0  0
 18 17  2  0  0  0  0
 19 18  1  0  0  0  0
 19 20  1  0  0  0  0
 21 19  1  0  0  0  0
 21 22  1  0  0  0  0
 21 23  1  0  0  0  0
 23 24  1  0  0  0  0
 23 25  1  0  0  0  0
 27 26  1  0  0  0  0
 27 28  1  0  0  0  0
M  END
> <Inchi_key>
LEHFPXVYPMWYQD-UHFFFAOYSA-N, BDSYKGHYMJNPAB-UHFFFAOYSA-N

> <Source>
Kotsampasakou, Mulliner

> <ID>
HT1015;EK0256

> <H_MFHB>
0

> <CAS>


> <Cholestasis>
0

> <Name>
halobetasol propionate

> <Class>
0


$$$$