

  -INDIGO-08031710012D

 10  9  0  0  0  0  0  0  0  0999 V2000
    9.6412    1.8334    0.0000 N   0  0  0  0  0  0  0  0  0  0  0  0
    8.3422    2.5834    0.0000 C   0  0  0  0  0  0  0  0  0  0  0  0
    7.0432    1.8334    0.0000 C   0  0  0  0  0  0  0  0  0  0  0  0
    5.7440    2.5834    0.0000 C   0  0  0  0  0  0  0  0  0  0  0  0
    4.4452    1.8334    0.0000 C   0  0  0  0  0  0  0  0  0  0  0  0
    3.1462    2.5834    0.0000 C   0  0  0  0  0  0  0  0  0  0  0  0
    3.1462    4.0834    0.0000 N   0  0  0  0  0  0  0  0  0  0  0  0
    1.8470    1.8334    0.0000 C   0  0  0  0  0  0  0  0  0  0  0  0
    0.5480    2.5834    0.0000 O   0  0  0  0  0  0  0  0  0  0  0  0
    1.8470    0.3334    0.0000 O   0  0  0  0  0  0  0  0  0  0  0  0
  1  2  1  0  0  0  0
  2  3  1  0  0  0  0
  3  4  1  0  0  0  0
  4  5  1  0  0  0  0
  5  6  1  0  0  0  0
  6  7  1  0  0  0  0
  6  8  1  0  0  0  0
  8  9  2  0  0  0  0
  8 10  1  0  0  0  0
M  END
> <Inchi_key>
KDXKERNSBIXSRK-UHFFFAOYSA-N

> <Source>
Mulliner

> <ID>
HT1224

> <H_MFHB>
0

> <CAS>


> <Cholestasis>


> <Name>
l-lysine

> <Class>
0


$$$$