
  -INDIGO-08031710012D

  9  9  0  0  0  0  0  0  0  0999 V2000
    5.5000    0.2887    0.0000 C   0  0  0  0  0  0  0  0  0  0  0  0
    4.7500    1.5877    0.0000 O   0  0  0  0  0  0  0  0  0  0  0  0
    3.2500    1.5877    0.0000 C   0  0  0  0  0  0  0  0  0  0  0  0
    2.5000    0.2887    0.0000 C   0  0  0  0  0  0  0  0  0  0  0  0
    1.0000    0.2887    0.0000 C   0  0  0  0  0  0  0  0  0  0  0  0
    0.2500    1.5877    0.0000 C   0  0  0  0  0  0  0  0  0  0  0  0
    1.0000    2.8868    0.0000 C   0  0  0  0  0  0  0  0  0  0  0  0
    2.5000    2.8868    0.0000 C   0  0  0  0  0  0  0  0  0  0  0  0
    3.2500    4.1858    0.0000 O   0  0  0  0  0  0  0  0  0  0  0  0
  1  2  1  0  0  0  0
  2  3  1  0  0  0  0
  4  3  2  0  0  0  0
  3  8  1  0  0  0  0
  5  4  1  0  0  0  0
  6  5  2  0  0  0  0
  7  6  1  0  0  0  0
  8  7  2  0  0  0  0
  8  9  1  0  0  0  0
M  END
> <Inchi_key>
LHGVFZTZFXWLCP-UHFFFAOYSA-N

> <Source>
Mulliner

> <ID>
HT2515

> <H_MFHB>
0

> <CAS>
8021-39-4

> <Cholestasis>


> <Name>


> <Class>
0

$$$$