

  -INDIGO-08031710012D

 12 11  0  0  0  0  0  0  0  0999 V2000
    8.6716   -1.5736    0.0000 C   0  0  0  0  0  0  0  0  0  0  0  0
    7.3726   -2.3236    0.0000 N   0  0  0  0  0  0  0  0  0  0  0  0
    7.3726   -3.8236    0.0000 C   0  0  0  0  0  0  0  0  0  0  0  0
    6.0736   -1.5736    0.0000 C   0  0  0  0  0  0  0  0  0  0  0  0
    6.0736   -0.0736    0.0000 S   0  0  0  0  0  0  0  0  0  0  0  0
    4.7744   -2.3236    0.0000 S   0  0  0  0  0  0  0  0  0  0  0  0
    3.4756   -1.5736    0.0000 S   0  0  0  0  0  0  0  0  0  0  0  0
    2.1764   -2.3236    0.0000 C   0  0  0  0  0  0  0  0  0  0  0  0
    2.1764   -3.8236    0.0000 S   0  0  0  0  0  0  0  0  0  0  0  0
    0.8774   -1.5736    0.0000 N   0  0  0  0  0  0  0  0  0  0  0  0
    0.8774   -0.0736    0.0000 C   0  0  0  0  0  0  0  0  0  0  0  0
   -0.4216   -2.3236    0.0000 C   0  0  0  0  0  0  0  0  0  0  0  0
  1  2  1  0  0  0  0
  2  3  1  0  0  0  0
  2  4  1  0  0  0  0
  4  5  2  0  0  0  0
  4  6  1  0  0  0  0
  6  7  1  0  0  0  0
  7  8  1  0  0  0  0
  8  9  2  0  0  0  0
  8 10  1  0  0  0  0
 10 11  1  0  0  0  0
 10 12  1  0  0  0  0
M  END
> <Inchi_key>
KUAZQDVKQLNFPE-UHFFFAOYSA-N

> <Source>
Mulliner

> <ID>
HT3049

> <H_MFHB>
0

> <CAS>
137-26-8

> <Cholestasis>


> <Name>


> <Class>
0


$$$$