
  -INDIGO-08031710012D

 16 16  0  0  0  0  0  0  0  0999 V2000
   11.9704   -1.9887    0.0000 C   0  0  0  0  0  0  0  0  0  0  0  0
   10.6713   -2.7387    0.0000 C   0  0  0  0  0  0  0  0  0  0  0  0
    9.3724   -1.9887    0.0000 O   0  0  0  0  0  0  0  0  0  0  0  0
    8.0733   -2.7387    0.0000 C   0  0  0  0  0  0  0  0  0  0  0  0
    8.0733   -4.2387    0.0000 O   0  0  0  0  0  0  0  0  0  0  0  0
    6.7742   -1.9887    0.0000 C   0  0  0  0  0  0  0  0  0  0  0  0
    6.0242   -3.2877    0.0000 C   0  0  0  0  0  0  0  0  0  0  0  0
    7.5242   -0.6897    0.0000 C   0  0  0  0  0  0  0  0  0  0  0  0
    5.4752   -1.2387    0.0000 O   0  0  0  0  0  0  0  0  0  0  0  0
    4.1761   -1.9887    0.0000 C   0  0  0  0  0  0  0  0  0  0  0  0
    4.1761   -3.4887    0.0000 C   0  0  0  0  0  0  0  0  0  0  0  0
    2.8770   -4.2387    0.0000 C   0  0  0  0  0  0  0  0  0  0  0  0
    1.5781   -3.4887    0.0000 C   0  0  0  0  0  0  0  0  0  0  0  0
    0.2790   -4.2387    0.0000 Cl  0  0  0  0  0  0  0  0  0  0  0  0
    1.5781   -1.9887    0.0000 C   0  0  0  0  0  0  0  0  0  0  0  0
    2.8770   -1.2387    0.0000 C   0  0  0  0  0  0  0  0  0  0  0  0
  1  2  1  0  0  0  0
  2  3  1  0  0  0  0
  3  4  1  0  0  0  0
  4  5  2  0  0  0  0
  4  6  1  0  0  0  0
  6  7  1  0  0  0  0
  6  8  1  0  0  0  0
  6  9  1  0  0  0  0
  9 10  1  0  0  0  0
 11 10  2  0  0  0  0
 10 16  1  0  0  0  0
 12 11  1  0  0  0  0
 13 12  2  0  0  0  0
 13 14  1  0  0  0  0
 15 13  1  0  0  0  0
 16 15  2  0  0  0  0
M  END
> <Inchi_key>
KNHUKKLJHYUCFP-UHFFFAOYSA-N

> <Source>
Mulliner

> <ID>
HT0523

> <H_MFHB>
0

> <CAS>
637-07-0

> <Cholestasis>


> <Name>
clofibrate

> <Class>
0

$$$$