

  -INDIGO-08031709442D

 13 12  0  0  0  0  0  0  0  0999 V2000
    1.0468   -1.0467    0.0000 O   0  0  0  0  0  0  0  0  0  0  0  0
    1.0468    0.4533    0.0000 C   0  0  0  0  0  0  0  0  0  0  0  0
   -0.4532    0.4533    0.0000 C   0  0  0  0  0  0  0  0  0  0  0  0
   -1.2033   -0.8458    0.0000 C   0  0  0  0  0  0  0  0  0  0  0  0
   -0.4532   -2.1448    0.0000 O   0  0  0  0  0  0  0  0  0  0  0  0
   -2.7033   -0.8458    0.0000 O   0  0  0  0  0  0  0  0  0  0  0  0
    2.5468    0.4533    0.0000 C   0  0  0  0  0  0  0  0  0  0  0  0
    3.2967   -0.8458    0.0000 C   0  0  0  0  0  0  0  0  0  0  0  0
    2.5468   -2.1448    0.0000 O   0  0  0  0  0  0  0  0  0  0  0  0
    4.7967   -0.8458    0.0000 O   0  0  0  0  0  0  0  0  0  0  0  0
    1.0468    1.9533    0.0000 C   0  0  0  0  0  0  0  0  0  0  0  0
    2.3458    2.7033    0.0000 O   0  0  0  0  0  0  0  0  0  0  0  0
   -0.2523    2.7033    0.0000 O   0  0  0  0  0  0  0  0  0  0  0  0
  1  2  1  0  0  0  0
  2  3  1  0  0  0  0
  2  7  1  0  0  0  0
  2 11  1  0  0  0  0
  3  4  1  0  0  0  0
  4  5  1  0  0  0  0
  4  6  2  0  0  0  0
  7  8  1  0  0  0  0
  8  9  1  0  0  0  0
  8 10  2  0  0  0  0
 11 12  1  0  0  0  0
 11 13  2  0  0  0  0
M  END
> <Inchi_key>
KRKNYBCHXYNGOX-UHFFFAOYSA-N

> <Source>
Kotsampasakou

> <ID>
EK0125

> <H_MFHB>


> <CAS>


> <Cholestasis>
0

> <Name>
citrate

> <Class>
0


$$$$