
  -INDIGO-08031710012D

 22 26  0  0  0  0  0  0  0  0999 V2000
   10.7882   -2.8275    0.0000 C   0  0  0  0  0  0  0  0  0  0  0  0
    9.4810   -2.0917    0.0000 O   0  0  0  0  0  0  0  0  0  0  0  0
    8.1902   -2.8559    0.0000 C   0  0  0  0  0  0  0  0  0  0  0  0
    8.2072   -4.2881    0.0000 C   0  0  0  0  0  0  0  0  0  0  0  0
    6.9730   -5.0145    0.0000 C   0  0  0  0  0  0  0  0  0  0  0  0
    5.7299   -4.3158    0.0000 C   0  0  0  0  0  0  0  0  0  0  0  0
    4.4900   -5.0484    0.0000 C   0  0  0  0  0  0  0  0  0  0  0  0
    3.2342   -4.3521    0.0000 C   0  0  0  0  0  0  0  0  0  0  0  0
    3.2197   -2.9083    0.0000 C   0  0  0  0  0  0  0  0  0  0  0  0
    1.9717   -2.2101    0.0000 C   0  0  0  0  0  0  0  0  0  0  0  0
    1.9622   -0.7738    0.0000 C   0  0  0  0  0  0  0  0  0  0  0  0
    3.1991   -0.0459    0.0000 C   0  0  0  0  0  0  0  0  0  0  0  0
    3.1879    1.4540    0.0000 O   0  0  0  0  0  0  0  0  0  0  0  0
    4.4444   -0.7542    0.0000 C   0  0  0  0  0  0  0  0  0  0  0  0
    6.1996   -0.5183    0.0000 O   0  0  0  0  0  0  0  0  0  0  0  0
    6.9393   -2.1503    0.0000 C   0  0  0  0  0  0  0  0  0  0  0  0
    5.7131   -2.8835    0.0000 C   0  0  0  0  0  0  0  0  0  0  0  0
    4.4563   -2.1805    0.0000 C   0  0  0  0  0  0  0  0  0  0  0  0
    4.8575   -3.5817    0.0000 C   0  0  0  0  0  0  0  0  0  0  0  0
    3.6754   -5.3800    0.0000 C   0  0  0  0  0  0  0  0  0  0  0  0
    2.2364   -5.3970    0.0000 N   0  0  0  0  0  0  0  0  0  0  0  0
    0.8606   -5.9946    0.0000 C   0  0  0  0  0  0  0  0  0  0  0  0
  1  2  1  0  0  0  0
  2  3  1  0  0  0  0
  4  3  2  0  0  0  0
  3 16  1  0  0  0  0
  5  4  1  0  0  0  0
  6  5  2  0  0  0  0
  7  6  1  0  0  0  0
  6 17  1  0  0  0  0
  8  7  1  0  0  0  0
  8  9  1  0  0  0  0
 21  8  1  0  0  0  0
  9 10  1  0  0  0  0
  9 18  1  0  0  0  0
 10 11  1  0  0  0  0
 11 12  1  0  0  0  0
 12 13  2  0  0  0  0
 12 14  1  0  0  0  0
 14 15  1  0  0  0  0
 14 18  1  0  0  0  0
 15 16  1  0  0  0  0
 16 17  2  0  0  0  0
 17 18  1  0  0  0  0
 18 19  1  0  0  0  0
 19 20  1  0  0  0  0
 20 21  1  0  0  0  0
 21 22  1  0  0  0  0
M  END
> <Inchi_key>
LLPOLZWFYMWNKH-UHFFFAOYSA-N

> <Source>
Mulliner

> <ID>
HT1045

> <H_MFHB>
0

> <CAS>


> <Cholestasis>


> <Name>
hydrocodone bitartrate;hydrocodone

> <Class>
0

$$$$