
  -INDIGO-08031710012D

  8  7  0  0  0  0  0  0  0  0999 V2000
    0.4638    0.2678    0.0000 C   0  0  0  0  0  0  0  0  0  0  0  0
   -0.2862   -1.0313    0.0000 N   0  0  0  0  0  0  0  0  0  0  0  0
   -1.0362   -2.3303    0.0000 C   0  0  0  0  0  0  0  0  0  0  0  0
   -1.5852   -0.2813    0.0000 C   0  0  0  0  0  0  0  0  0  0  0  0
    1.0129   -1.7812    0.0000 C   0  0  0  0  0  0  0  0  0  0  0  0
    2.3119   -1.0312    0.0000 C   0  0  0  0  0  0  0  0  0  0  0  0
    2.3119    0.4688    0.0000 O   0  0  0  0  0  0  0  0  0  0  0  0
    3.6109   -1.7812    0.0000 O   0  0  0  0  0  0  0  0  0  0  0  0
  1  2  1  0  0  0  0
  2  3  1  0  0  0  0
  2  4  1  0  0  0  0
  2  5  1  0  0  0  0
  5  6  1  0  0  0  0
  6  7  2  0  0  0  0
  6  8  1  0  0  0  0
M  CHG  2   2   1   8  -1
M  END
> <Inchi_key>
KWIUHFFTVRNATP-UHFFFAOYSA-N

> <Source>
Mulliner , Kotsampasakou

> <ID>
EK0060;HT0269

> <H_MFHB>
0

> <CAS>
107-43-7

> <Cholestasis>
0

> <Name>
betaine

> <Class>
0

$$$$