
  -INDIGO-08031710012D

 27 29  0  0  0  0  0  0  0  0999 V2000
    2.3441    6.5941    0.0000 O   0  0  0  0  0  0  0  0  0  0  0  0
    1.0451    5.8441    0.0000 C   0  0  0  0  0  0  0  0  0  0  0  0
   -0.2538    6.5941    0.0000 C   0  0  0  0  0  0  0  0  0  0  0  0
   -1.5528    5.8441    0.0000 C   0  0  0  0  0  0  0  0  0  0  0  0
   -1.5528    4.3441    0.0000 C   0  0  0  0  0  0  0  0  0  0  0  0
   -2.8518    3.5941    0.0000 C   0  0  0  0  0  0  0  0  0  0  0  0
   -2.8518    2.0941    0.0000 C   0  0  0  0  0  0  0  0  0  0  0  0
   -1.5528    1.3441    0.0000 C   0  0  0  0  0  0  0  0  0  0  0  0
   -0.2538    2.0941    0.0000 C   0  0  0  0  0  0  0  0  0  0  0  0
   -0.2538    3.5941    0.0000 C   0  0  0  0  0  0  0  0  0  0  0  0
    1.0451    4.3441    0.0000 C   0  0  0  0  0  0  0  0  0  0  0  0
    2.3441    3.5941    0.0000 N   0  0  0  0  0  0  0  0  0  0  0  0
    3.6434    4.3441    0.0000 N   0  0  0  0  0  0  0  0  0  0  0  0
    4.9423    3.5941    0.0000 C   0  0  0  0  0  0  0  0  0  0  0  0
    6.2413    4.3441    0.0000 C   0  0  0  0  0  0  0  0  0  0  0  0
    7.5403    3.5941    0.0000 C   0  0  0  0  0  0  0  0  0  0  0  0
    7.5403    2.0941    0.0000 C   0  0  0  0  0  0  0  0  0  0  0  0
    6.2413    1.3441    0.0000 C   0  0  0  0  0  0  0  0  0  0  0  0
    4.9423    2.0941    0.0000 C   0  0  0  0  0  0  0  0  0  0  0  0
    8.8395    1.3441    0.0000 S   0  0  0  0  0  0  0  0  0  0  0  0
    9.5895    2.6431    0.0000 O   0  0  0  0  0  0  0  0  0  0  0  0
    8.0893    0.0450    0.0000 O   0  0  0  0  0  0  0  0  0  0  0  0
   10.1385    0.5941    0.0000 O   0  0  0  0  0  0  0  0  0  0  0  0
   -4.1510    1.3441    0.0000 S   0  0  0  0  0  0  0  0  0  0  0  0
   -4.9010    2.6431    0.0000 O   0  0  0  0  0  0  0  0  0  0  0  0
   -3.4010    0.0450    0.0000 O   0  0  0  0  0  0  0  0  0  0  0  0
   -5.4500    0.5941    0.0000 O   0  0  0  0  0  0  0  0  0  0  0  0
  1  2  1  0  0  0  0
  3  2  2  0  0  0  0
  2 11  1  0  0  0  0
  4  3  1  0  0  0  0
  5  4  2  0  0  0  0
  6  5  1  0  0  0  0
  5 10  1  0  0  0  0
  7  6  2  0  0  0  0
  8  7  1  0  0  0  0
  7 24  1  0  0  0  0
  9  8  2  0  0  0  0
 10  9  1  0  0  0  0
 11 10  2  0  0  0  0
 11 12  1  0  0  0  0
 12 13  2  0  0  0  0
 13 14  1  0  0  0  0
 15 14  2  0  0  0  0
 14 19  1  0  0  0  0
 16 15  1  0  0  0  0
 17 16  2  0  0  0  0
 18 17  1  0  0  0  0
 17 20  1  0  0  0  0
 19 18  2  0  0  0  0
 20 21  2  0  0  0  0
 20 22  2  0  0  0  0
 20 23  1  0  0  0  0
 24 25  2  0  0  0  0
 24 26  2  0  0  0  0
 24 27  1  0  0  0  0
M  END
> <Inchi_key>
KEYWXKLGZZGHMT-ISLYRVAYSA-N

> <Source>
Mulliner

> <ID>
HT3781

> <H_MFHB>
0

> <CAS>


> <Cholestasis>


> <Name>


> <Class>
0

$$$$