

  -INDIGO-08031710012D

 26 29  0  0  0  0  0  0  0  0999 V2000
    8.4804   -5.3077    0.0000 C   0  0  0  0  0  0  0  0  0  0  0  0
    8.4693   -6.8077    0.0000 C   0  0  0  0  0  0  0  0  0  0  0  0
    7.1648   -7.5481    0.0000 C   0  0  0  0  0  0  0  0  0  0  0  0
    7.1537   -9.0480    0.0000 C   0  0  0  0  0  0  0  0  0  0  0  0
    8.4470   -9.8076    0.0000 O   0  0  0  0  0  0  0  0  0  0  0  0
    5.8713   -6.7885    0.0000 N   0  0  0  0  0  0  0  0  0  0  0  0
    4.5668   -7.5289    0.0000 C   0  0  0  0  0  0  0  0  0  0  0  0
    4.5557   -9.0289    0.0000 O   0  0  0  0  0  0  0  0  0  0  0  0
    3.2733   -6.7693    0.0000 C   0  0  0  0  0  0  0  0  0  0  0  0
    3.2844   -5.2694    0.0000 C   0  0  0  0  0  0  0  0  0  0  0  0
    1.9909   -4.5098    0.0000 N   0  0  0  0  0  0  0  0  0  0  0  0
    1.9902   -3.0098    0.0000 C   0  0  0  0  0  0  0  0  0  0  0  0
    0.6801   -5.2811    0.0000 C   0  0  0  0  0  0  0  0  0  0  0  0
   -0.5974   -4.5548    0.0000 C   0  0  0  0  0  0  0  0  0  0  0  0
   -1.8672   -5.2987    0.0000 C   0  0  0  0  0  0  0  0  0  0  0  0
   -3.3266   -4.9153    0.0000 C   0  0  0  0  0  0  0  0  0  0  0  0
   -4.2544   -6.5341    0.0000 N   0  0  0  0  0  0  0  0  0  0  0  0
   -5.7329   -6.7875    0.0000 C   0  0  0  0  0  0  0  0  0  0  0  0
   -3.1197   -7.5092    0.0000 C   0  0  0  0  0  0  0  0  0  0  0  0
   -3.1056   -8.9736    0.0000 C   0  0  0  0  0  0  0  0  0  0  0  0
   -1.8288   -9.6966    0.0000 C   0  0  0  0  0  0  0  0  0  0  0  0
   -0.5698   -8.9527    0.0000 C   0  0  0  0  0  0  0  0  0  0  0  0
   -0.5744   -7.4874    0.0000 C   0  0  0  0  0  0  0  0  0  0  0  0
    0.6846   -6.7435    0.0000 C   0  0  0  0  0  0  0  0  0  0  0  0
    1.9688   -7.5097    0.0000 C   0  0  0  0  0  0  0  0  0  0  0  0
   -1.8527   -6.7666    0.0000 C   0  0  0  0  0  0  0  0  0  0  0  0
  1  2  1  0  0  0  0
  2  3  1  0  0  0  0
  3  4  1  0  0  0  0
  3  6  1  0  0  0  0
  4  5  1  0  0  0  0
  6  7  1  0  0  0  0
  7  8  2  0  0  0  0
  7  9  1  0  0  0  0
 10  9  1  0  0  0  0
  9 25  1  0  0  0  0
 11 10  1  0  0  0  0
 11 12  1  0  0  0  0
 13 11  1  0  0  0  0
 14 13  1  0  0  0  0
 13 24  1  0  0  0  0
 15 14  1  0  0  0  0
 16 15  2  0  0  0  0
 15 26  1  0  0  0  0
 17 16  1  0  0  0  0
 17 18  1  0  0  0  0
 19 17  1  0  0  0  0
 19 20  1  0  0  0  0
 26 19  2  0  0  0  0
 20 21  2  0  0  0  0
 21 22  1  0  0  0  0
 22 23  2  0  0  0  0
 24 23  1  0  0  0  0
 23 26  1  0  0  0  0
 25 24  2  0  0  0  0
M  END
> <Inchi_key>
KPJZHOPZRAFDTN-UHFFFAOYSA-N

> <Source>
Mulliner , Kotsampasakou

> <ID>
EK0343;HT1372

> <H_MFHB>
0

> <CAS>


> <Cholestasis>
0

> <Name>
methysergide maleate;methysergide

> <Class>
0


$$$$