

  -INDIGO-08031710012D

 29 32  0  0  0  0  0  0  0  0999 V2000
    5.2877    5.2877    0.0000 O   0  0  0  0  0  0  0  0  0  0  0  0
    5.2877    3.7877    0.0000 C   0  0  0  0  0  0  0  0  0  0  0  0
    3.9886    3.0377    0.0000 C   0  0  0  0  0  0  0  0  0  0  0  0
    2.6899    3.7877    0.0000 N   0  0  0  0  0  0  0  0  0  0  0  0
    1.3905    3.0377    0.0000 C   0  0  0  0  0  0  0  0  0  0  0  0
    0.0917    3.7877    0.0000 C   0  0  0  0  0  0  0  0  0  0  0  0
    0.0917    5.2877    0.0000 O   0  0  0  0  0  0  0  0  0  0  0  0
   -1.2076    3.0377    0.0000 C   0  0  0  0  0  0  0  0  0  0  0  0
   -1.2076    1.5377    0.0000 C   0  0  0  0  0  0  0  0  0  0  0  0
   -2.5064    0.7877    0.0000 C   0  0  0  0  0  0  0  0  0  0  0  0
   -3.8054    1.5377    0.0000 C   0  0  0  0  0  0  0  0  0  0  0  0
   -5.1045    0.7877    0.0000 C   0  0  0  0  0  0  0  0  0  0  0  0
   -6.4035    1.5377    0.0000 C   0  0  0  0  0  0  0  0  0  0  0  0
   -7.7026    0.7877    0.0000 F   0  0  0  0  0  0  0  0  0  0  0  0
   -6.4035    3.0377    0.0000 C   0  0  0  0  0  0  0  0  0  0  0  0
   -5.1045    3.7877    0.0000 C   0  0  0  0  0  0  0  0  0  0  0  0
   -3.8054    3.0377    0.0000 C   0  0  0  0  0  0  0  0  0  0  0  0
   -2.5064    3.7877    0.0000 O   0  0  0  0  0  0  0  0  0  0  0  0
    6.5867    3.0377    0.0000 C   0  0  0  0  0  0  0  0  0  0  0  0
    6.5867    1.5377    0.0000 C   0  0  0  0  0  0  0  0  0  0  0  0
    7.8858    0.7877    0.0000 C   0  0  0  0  0  0  0  0  0  0  0  0
    9.1848    1.5377    0.0000 C   0  0  0  0  0  0  0  0  0  0  0  0
   10.4839    0.7877    0.0000 C   0  0  0  0  0  0  0  0  0  0  0  0
   11.7829    1.5377    0.0000 C   0  0  0  0  0  0  0  0  0  0  0  0
   13.0820    0.7877    0.0000 F   0  0  0  0  0  0  0  0  0  0  0  0
   11.7829    3.0377    0.0000 C   0  0  0  0  0  0  0  0  0  0  0  0
   10.4839    3.7877    0.0000 C   0  0  0  0  0  0  0  0  0  0  0  0
    9.1848    3.0377    0.0000 C   0  0  0  0  0  0  0  0  0  0  0  0
    7.8858    3.7877    0.0000 O   0  0  0  0  0  0  0  0  0  0  0  0
  1  2  1  0  0  0  0
  2  3  1  0  0  0  0
  2 19  1  0  0  0  0
  3  4  1  0  0  0  0
  4  5  1  0  0  0  0
  5  6  1  0  0  0  0
  6  7  1  0  0  0  0
  6  8  1  0  0  0  0
  9  8  1  0  0  0  0
  8 18  1  0  0  0  0
 10  9  1  0  0  0  0
 11 10  1  0  0  0  0
 12 11  2  0  0  0  0
 11 17  1  0  0  0  0
 13 12  1  0  0  0  0
 13 14  1  0  0  0  0
 15 13  2  0  0  0  0
 16 15  1  0  0  0  0
 17 16  2  0  0  0  0
 18 17  1  0  0  0  0
 20 19  1  0  0  0  0
 19 29  1  0  0  0  0
 21 20  1  0  0  0  0
 22 21  1  0  0  0  0
 23 22  2  0  0  0  0
 22 28  1  0  0  0  0
 24 23  1  0  0  0  0
 24 25  1  0  0  0  0
 26 24  2  0  0  0  0
 27 26  1  0  0  0  0
 28 27  2  0  0  0  0
 29 28  1  0  0  0  0
M  END
> <Inchi_key>
KOHIRBRYDXPAMZ-UHFFFAOYSA-N

> <Source>
Mulliner , Kotsampasakou

> <ID>
EK0376;HT1468

> <H_MFHB>
0

> <CAS>


> <Cholestasis>
0

> <Name>
nebivolol hydrochloride;nebivolol

> <Class>
0


$$$$