
  -INDIGO-08031710012D

 20 19  0  0  0  0  0  0  0  0999 V2000
   -2.3236    5.8727    0.0000 O   0  0  0  0  0  0  0  0  0  0  0  0
   -3.6226    5.1226    0.0000 C   0  0  0  0  0  0  0  0  0  0  0  0
   -4.9216    5.8727    0.0000 O   0  0  0  0  0  0  0  0  0  0  0  0
   -3.6226    3.6226    0.0000 C   0  0  0  0  0  0  0  0  0  0  0  0
   -2.3236    2.8726    0.0000 N   0  0  0  0  0  0  0  0  0  0  0  0
   -1.0244    3.6226    0.0000 C   0  0  0  0  0  0  0  0  0  0  0  0
    0.2744    2.8726    0.0000 C   0  0  0  0  0  0  0  0  0  0  0  0
    1.5736    3.6226    0.0000 N   0  0  0  0  0  0  0  0  0  0  0  0
    2.8726    2.8726    0.0000 C   0  0  0  0  0  0  0  0  0  0  0  0
    2.8726    1.3726    0.0000 C   0  0  0  0  0  0  0  0  0  0  0  0
    4.1716    0.6225    0.0000 O   0  0  0  0  0  0  0  0  0  0  0  0
    1.5736    0.6225    0.0000 O   0  0  0  0  0  0  0  0  0  0  0  0
    1.5736    5.1226    0.0000 C   0  0  0  0  0  0  0  0  0  0  0  0
    2.8726    5.8727    0.0000 C   0  0  0  0  0  0  0  0  0  0  0  0
    2.8726    7.3726    0.0000 O   0  0  0  0  0  0  0  0  0  0  0  0
    4.1716    5.1226    0.0000 O   0  0  0  0  0  0  0  0  0  0  0  0
   -2.3236    1.3726    0.0000 C   0  0  0  0  0  0  0  0  0  0  0  0
   -3.6226    0.6225    0.0000 C   0  0  0  0  0  0  0  0  0  0  0  0
   -4.9216    1.3726    0.0000 O   0  0  0  0  0  0  0  0  0  0  0  0
   -3.6226   -0.8774    0.0000 O   0  0  0  0  0  0  0  0  0  0  0  0
  1  2  1  0  0  0  0
  2  3  2  0  0  0  0
  2  4  1  0  0  0  0
  4  5  1  0  0  0  0
  5  6  1  0  0  0  0
  5 17  1  0  0  0  0
  6  7  1  0  0  0  0
  7  8  1  0  0  0  0
  8  9  1  0  0  0  0
  8 13  1  0  0  0  0
  9 10  1  0  0  0  0
 10 11  2  0  0  0  0
 10 12  1  0  0  0  0
 13 14  1  0  0  0  0
 14 15  2  0  0  0  0
 14 16  1  0  0  0  0
 17 18  1  0  0  0  0
 18 19  2  0  0  0  0
 18 20  1  0  0  0  0
M  END
> <Inchi_key>
KCXVZYZYPLLWCC-UHFFFAOYSA-N

> <Source>
Mulliner , Kotsampasakou

> <ID>
EK0181;HT0743

> <H_MFHB>
0

> <CAS>
60-00-4

> <Cholestasis>
0

> <Name>
edetate calcium disodium;ethylenediaminetetraacetic acid;edetate disodium

> <Class>
0

$$$$