
  -INDIGO-08031710012D

 33 36  0  0  0  0  0  0  0  0999 V2000
    1.3257    2.4859    0.0000 C   0  0  0  0  0  0  0  0  0  0  0  0
    2.6246    1.7359    0.0000 N   0  0  0  0  0  0  0  0  0  0  0  0
    3.9238    2.4859    0.0000 C   0  0  0  0  0  0  0  0  0  0  0  0
    2.6246    0.2359    0.0000 C   0  0  0  0  0  0  0  0  0  0  0  0
    3.9238   -0.5141    0.0000 C   0  0  0  0  0  0  0  0  0  0  0  0
    5.2227    0.2359    0.0000 C   0  0  0  0  0  0  0  0  0  0  0  0
    5.2227    1.7359    0.0000 O   0  0  0  0  0  0  0  0  0  0  0  0
    6.5218   -0.5141    0.0000 C   0  0  0  0  0  0  0  0  0  0  0  0
    6.5218   -2.0141    0.0000 C   0  0  0  0  0  0  0  0  0  0  0  0
    5.2227   -2.7641    0.0000 C   0  0  0  0  0  0  0  0  0  0  0  0
    5.2227   -4.2641    0.0000 O   0  0  0  0  0  0  0  0  0  0  0  0
    3.9238   -2.0141    0.0000 C   0  0  0  0  0  0  0  0  0  0  0  0
    3.9238   -3.5141    0.0000 O   0  0  0  0  0  0  0  0  0  0  0  0
    2.6246   -2.7641    0.0000 C   0  0  0  0  0  0  0  0  0  0  0  0
    1.3257   -2.0141    0.0000 C   0  0  0  0  0  0  0  0  0  0  0  0
    0.0267   -2.7641    0.0000 C   0  0  0  0  0  0  0  0  0  0  0  0
    0.0267   -4.2641    0.0000 O   0  0  0  0  0  0  0  0  0  0  0  0
   -1.2724   -2.0141    0.0000 N   0  0  0  0  0  0  0  0  0  0  0  0
    1.3257   -0.5141    0.0000 C   0  0  0  0  0  0  0  0  0  0  0  0
    0.0267    0.2359    0.0000 O   0  0  0  0  0  0  0  0  0  0  0  0
    2.6246   -4.2641    0.0000 O   0  0  0  0  0  0  0  0  0  0  0  0
    7.8210   -2.7641    0.0000 C   0  0  0  0  0  0  0  0  0  0  0  0
    7.8210   -4.2641    0.0000 O   0  0  0  0  0  0  0  0  0  0  0  0
    9.1199   -2.0141    0.0000 C   0  0  0  0  0  0  0  0  0  0  0  0
   10.4191   -2.7641    0.0000 C   0  0  0  0  0  0  0  0  0  0  0  0
   10.4191   -4.2641    0.0000 O   0  0  0  0  0  0  0  0  0  0  0  0
   11.7180   -2.0141    0.0000 C   0  0  0  0  0  0  0  0  0  0  0  0
   11.7180   -0.5141    0.0000 C   0  0  0  0  0  0  0  0  0  0  0  0
   10.4191    0.2359    0.0000 C   0  0  0  0  0  0  0  0  0  0  0  0
    9.1199   -0.5141    0.0000 C   0  0  0  0  0  0  0  0  0  0  0  0
    7.8210    0.2359    0.0000 C   0  0  0  0  0  0  0  0  0  0  0  0
    8.5708    1.5349    0.0000 C   0  0  0  0  0  0  0  0  0  0  0  0
    7.0709    1.5349    0.0000 O   0  0  0  0  0  0  0  0  0  0  0  0
  1  2  1  0  0  0  0
  2  3  1  0  0  0  0
  2  4  1  0  0  0  0
  5  4  1  0  0  0  0
  4 19  1  0  0  0  0
  6  5  1  0  0  0  0
  5 12  1  0  0  0  0
  6  7  1  0  0  0  0
  8  6  1  0  0  0  0
  8  9  1  0  0  0  0
 31  8  1  0  0  0  0
 10  9  2  0  0  0  0
  9 22  1  0  0  0  0
 10 11  1  0  0  0  0
 12 10  1  0  0  0  0
 12 13  1  0  0  0  0
 14 12  1  0  0  0  0
 15 14  2  0  0  0  0
 14 21  1  0  0  0  0
 15 16  1  0  0  0  0
 19 15  1  0  0  0  0
 16 17  2  0  0  0  0
 16 18  1  0  0  0  0
 19 20  2  0  0  0  0
 22 23  2  0  0  0  0
 22 24  1  0  0  0  0
 25 24  2  0  0  0  0
 24 30  1  0  0  0  0
 25 26  1  0  0  0  0
 27 25  1  0  0  0  0
 28 27  2  0  0  0  0
 29 28  1  0  0  0  0
 30 29  2  0  0  0  0
 30 31  1  0  0  0  0
 31 32  1  0  0  0  0
 31 33  1  0  0  0  0
M  END
> <Inchi_key>
KTUXFHGUHYRDNF-UHFFFAOYSA-N

> <Source>
Mulliner

> <ID>
HT1577

> <H_MFHB>
0

> <CAS>
2058-46-0

> <Cholestasis>


> <Name>
oxytetracycline hydrochloride;oxytetracycline

> <Class>
0

$$$$