

  -INDIGO-08031710012D

 46 49  0  0  0  0  0  0  0  0999 V2000
   -5.9673   -8.5286    0.0000 C   0  0  0  0  0  0  0  0  0  0  0  0
   -6.7175   -7.2294    0.0000 C   0  0  0  0  0  0  0  0  0  0  0  0
   -8.2175   -7.2294    0.0000 C   0  0  0  0  0  0  0  0  0  0  0  0
   -5.9673   -5.9303    0.0000 C   0  0  0  0  0  0  0  0  0  0  0  0
   -6.7175   -4.6314    0.0000 N   0  0  0  0  0  0  0  0  0  0  0  0
   -5.9673   -3.3322    0.0000 C   0  0  0  0  0  0  0  0  0  0  0  0
   -6.7175   -2.0333    0.0000 C   0  0  0  0  0  0  0  0  0  0  0  0
   -8.2175   -2.0333    0.0000 C   0  0  0  0  0  0  0  0  0  0  0  0
   -8.9674   -3.3322    0.0000 N   0  0  0  0  0  0  0  0  0  0  0  0
   -8.2175   -4.6314    0.0000 C   0  0  0  0  0  0  0  0  0  0  0  0
   -8.9674   -5.9303    0.0000 O   0  0  0  0  0  0  0  0  0  0  0  0
   -4.4675   -5.9303    0.0000 C   0  0  0  0  0  0  0  0  0  0  0  0
   -3.7173   -4.6314    0.0000 O   0  0  0  0  0  0  0  0  0  0  0  0
   -3.7173   -7.2294    0.0000 N   0  0  0  0  0  0  0  0  0  0  0  0
   -2.2173   -7.2294    0.0000 C   0  0  0  0  0  0  0  0  0  0  0  0
   -1.4674   -5.9303    0.0000 C   0  0  0  0  0  0  0  0  0  0  0  0
    0.0327   -5.9303    0.0000 C   0  0  0  0  0  0  0  0  0  0  0  0
    0.7825   -7.2294    0.0000 O   0  0  0  0  0  0  0  0  0  0  0  0
    0.7825   -4.6314    0.0000 C   0  0  0  0  0  0  0  0  0  0  0  0
    0.0327   -3.3322    0.0000 C   0  0  0  0  0  0  0  0  0  0  0  0
    0.7825   -2.0333    0.0000 C   0  0  0  0  0  0  0  0  0  0  0  0
    2.2826   -2.0333    0.0000 C   0  0  0  0  0  0  0  0  0  0  0  0
    3.0325   -0.7341    0.0000 C   0  0  0  0  0  0  0  0  0  0  0  0
    2.2826    0.5648    0.0000 C   0  0  0  0  0  0  0  0  0  0  0  0
    0.7825    0.5648    0.0000 C   0  0  0  0  0  0  0  0  0  0  0  0
    0.0327   -0.7341    0.0000 C   0  0  0  0  0  0  0  0  0  0  0  0
    2.2826   -4.6314    0.0000 N   0  0  0  0  0  0  0  0  0  0  0  0
    3.0325   -5.9303    0.0000 C   0  0  0  0  0  0  0  0  0  0  0  0
    2.2826   -7.2294    0.0000 O   0  0  0  0  0  0  0  0  0  0  0  0
    4.5325   -5.9303    0.0000 C   0  0  0  0  0  0  0  0  0  0  0  0
    5.2827   -7.2294    0.0000 O   0  0  0  0  0  0  0  0  0  0  0  0
    6.7825   -7.2294    0.0000 C   0  0  0  0  0  0  0  0  0  0  0  0
    7.5327   -8.5286    0.0000 C   0  0  0  0  0  0  0  0  0  0  0  0
    6.7825   -9.8275    0.0000 C   0  0  0  0  0  0  0  0  0  0  0  0
    9.0327   -8.5286    0.0000 C   0  0  0  0  0  0  0  0  0  0  0  0
    9.7826   -7.2294    0.0000 C   0  0  0  0  0  0  0  0  0  0  0  0
    9.0327   -5.9303    0.0000 C   0  0  0  0  0  0  0  0  0  0  0  0
    7.5327   -5.9303    0.0000 C   0  0  0  0  0  0  0  0  0  0  0  0
    6.7825   -4.6314    0.0000 C   0  0  0  0  0  0  0  0  0  0  0  0
   -1.4674   -8.5286    0.0000 C   0  0  0  0  0  0  0  0  0  0  0  0
   -2.2173   -9.8275    0.0000 C   0  0  0  0  0  0  0  0  0  0  0  0
   -1.4674  -11.1265    0.0000 C   0  0  0  0  0  0  0  0  0  0  0  0
   -2.2173  -12.4256    0.0000 C   0  0  0  0  0  0  0  0  0  0  0  0
   -3.7173  -12.4256    0.0000 C   0  0  0  0  0  0  0  0  0  0  0  0
   -4.4675  -11.1265    0.0000 C   0  0  0  0  0  0  0  0  0  0  0  0
   -3.7173   -9.8275    0.0000 C   0  0  0  0  0  0  0  0  0  0  0  0
  1  2  1  0  0  0  0
  2  3  1  0  0  0  0
  2  4  1  0  0  0  0
  4  5  1  0  0  0  0
  4 12  1  0  0  0  0
  6  5  1  0  0  0  0
  5 10  1  0  0  0  0
  7  6  1  0  0  0  0
  8  7  1  0  0  0  0
  9  8  1  0  0  0  0
 10  9  1  0  0  0  0
 10 11  2  0  0  0  0
 12 13  2  0  0  0  0
 12 14  1  0  0  0  0
 14 15  1  0  0  0  0
 15 16  1  0  0  0  0
 15 40  1  0  0  0  0
 16 17  1  0  0  0  0
 17 18  1  0  0  0  0
 17 19  1  0  0  0  0
 19 20  1  0  0  0  0
 19 27  1  0  0  0  0
 20 21  1  0  0  0  0
 22 21  2  0  0  0  0
 21 26  1  0  0  0  0
 23 22  1  0  0  0  0
 24 23  2  0  0  0  0
 25 24  1  0  0  0  0
 26 25  2  0  0  0  0
 27 28  1  0  0  0  0
 28 29  2  0  0  0  0
 28 30  1  0  0  0  0
 30 31  1  0  0  0  0
 31 32  1  0  0  0  0
 33 32  2  0  0  0  0
 32 38  1  0  0  0  0
 33 34  1  0  0  0  0
 35 33  1  0  0  0  0
 36 35  2  0  0  0  0
 37 36  1  0  0  0  0
 38 37  2  0  0  0  0
 38 39  1  0  0  0  0
 40 41  1  0  0  0  0
 42 41  2  0  0  0  0
 41 46  1  0  0  0  0
 43 42  1  0  0  0  0
 44 43  2  0  0  0  0
 45 44  1  0  0  0  0
 46 45  2  0  0  0  0
M  END
> <Inchi_key>
KJHKTHWMRKYKJE-UHFFFAOYSA-N

> <Source>
Mulliner

> <ID>
HT1234

> <H_MFHB>
0

> <CAS>


> <Cholestasis>


> <Name>
lopinavir

> <Class>
0


$$$$