
  -INDIGO-08031710012D

 14 14  0  0  0  0  0  0  0  0999 V2000
    0.8036    0.4639    0.0000 N   0  0  0  0  0  0  0  0  0  0  0  0
    0.0536   -0.8351    0.0000 C   0  0  0  0  0  0  0  0  0  0  0  0
    0.8036   -2.1341    0.0000 C   0  0  0  0  0  0  0  0  0  0  0  0
    0.0536   -3.4332    0.0000 C   0  0  0  0  0  0  0  0  0  0  0  0
   -1.4464   -3.4332    0.0000 C   0  0  0  0  0  0  0  0  0  0  0  0
   -2.1964   -4.7322    0.0000 O   0  0  0  0  0  0  0  0  0  0  0  0
   -2.1964   -2.1341    0.0000 O   0  0  0  0  0  0  0  0  0  0  0  0
    2.3037   -2.1341    0.0000 C   0  0  0  0  0  0  0  0  0  0  0  0
    3.0536   -3.4332    0.0000 C   0  0  0  0  0  0  0  0  0  0  0  0
    4.5536   -3.4332    0.0000 C   0  0  0  0  0  0  0  0  0  0  0  0
    5.3037   -2.1341    0.0000 C   0  0  0  0  0  0  0  0  0  0  0  0
    6.8036   -2.1341    0.0000 Cl  0  0  0  0  0  0  0  0  0  0  0  0
    4.5536   -0.8351    0.0000 C   0  0  0  0  0  0  0  0  0  0  0  0
    3.0536   -0.8351    0.0000 C   0  0  0  0  0  0  0  0  0  0  0  0
  1  2  1  0  0  0  0
  2  3  1  0  0  0  0
  3  4  1  0  0  0  0
  3  8  1  0  0  0  0
  4  5  1  0  0  0  0
  5  6  2  0  0  0  0
  5  7  1  0  0  0  0
  9  8  2  0  0  0  0
  8 14  1  0  0  0  0
 10  9  1  0  0  0  0
 11 10  2  0  0  0  0
 11 12  1  0  0  0  0
 13 11  1  0  0  0  0
 14 13  2  0  0  0  0
M  END
> <Inchi_key>
KPYSYYIEGFHWSV-UHFFFAOYSA-N

> <Source>
Mulliner , Kotsampasakou

> <ID>
EK0052;HT0223

> <H_MFHB>
0

> <CAS>


> <Cholestasis>
0

> <Name>
baclofen

> <Class>
0

$$$$