
  -INDIGO-08031710012D

 28 31  0  0  0  0  0  0  0  0999 V2000
    4.5832   -5.6806    0.0000 C   0  0  0  0  0  0  0  0  0  0  0  0
    4.9004   -4.2145    0.0000 C   0  0  0  0  0  0  0  0  0  0  0  0
    6.3287   -3.7561    0.0000 C   0  0  0  0  0  0  0  0  0  0  0  0
    7.4397   -4.7638    0.0000 C   0  0  0  0  0  0  0  0  0  0  0  0
    8.8680   -4.3054    0.0000 C   0  0  0  0  0  0  0  0  0  0  0  0
    9.9790   -5.3131    0.0000 O   0  0  0  0  0  0  0  0  0  0  0  0
    9.1852   -2.8393    0.0000 O   0  0  0  0  0  0  0  0  0  0  0  0
    3.7891   -3.2068    0.0000 C   0  0  0  0  0  0  0  0  0  0  0  0
    3.9515   -1.7156    0.0000 C   0  0  0  0  0  0  0  0  0  0  0  0
    2.5832   -1.1006    0.0000 C   0  0  0  0  0  0  0  0  0  0  0  0
    1.5757   -2.2117    0.0000 C   0  0  0  0  0  0  0  0  0  0  0  0
    0.0757   -2.2063    0.0000 C   0  0  0  0  0  0  0  0  0  0  0  0
   -0.6698   -0.9046    0.0000 C   0  0  0  0  0  0  0  0  0  0  0  0
   -2.1698   -0.8992    0.0000 C   0  0  0  0  0  0  0  0  0  0  0  0
   -2.9244   -2.1956    0.0000 C   0  0  0  0  0  0  0  0  0  0  0  0
   -4.4244   -2.1902    0.0000 C   0  0  0  0  0  0  0  0  0  0  0  0
   -5.1791   -3.4865    0.0000 C   0  0  0  0  0  0  0  0  0  0  0  0
   -6.6790   -3.4812    0.0000 O   0  0  0  0  0  0  0  0  0  0  0  0
   -4.4338   -4.7882    0.0000 C   0  0  0  0  0  0  0  0  0  0  0  0
   -2.9336   -4.7936    0.0000 C   0  0  0  0  0  0  0  0  0  0  0  0
   -2.1792   -3.4973    0.0000 C   0  0  0  0  0  0  0  0  0  0  0  0
   -1.4336   -4.7990    0.0000 C   0  0  0  0  0  0  0  0  0  0  0  0
   -0.6792   -3.5027    0.0000 C   0  0  0  0  0  0  0  0  0  0  0  0
    0.0663   -4.8044    0.0000 C   0  0  0  0  0  0  0  0  0  0  0  0
    1.5662   -4.8098    0.0000 C   0  0  0  0  0  0  0  0  0  0  0  0
    2.3115   -6.1115    0.0000 O   0  0  0  0  0  0  0  0  0  0  0  0
    2.3209   -3.5134    0.0000 C   0  0  0  0  0  0  0  0  0  0  0  0
    3.1770   -4.7452    0.0000 C   0  0  0  0  0  0  0  0  0  0  0  0
  1  2  1  0  0  0  0
  2  3  1  0  0  0  0
  2  8  1  0  0  0  0
  3  4  1  0  0  0  0
  4  5  1  0  0  0  0
  5  6  2  0  0  0  0
  5  7  1  0  0  0  0
  9  8  1  0  0  0  0
  8 27  1  0  0  0  0
 10  9  1  0  0  0  0
 11 10  1  0  0  0  0
 12 11  1  0  0  0  0
 11 27  1  0  0  0  0
 13 12  1  0  0  0  0
 12 23  1  0  0  0  0
 14 13  1  0  0  0  0
 15 14  1  0  0  0  0
 16 15  1  0  0  0  0
 15 21  1  0  0  0  0
 17 16  1  0  0  0  0
 17 18  1  0  0  0  0
 19 17  1  0  0  0  0
 20 19  1  0  0  0  0
 21 20  1  0  0  0  0
 21 22  1  0  0  0  0
 23 21  1  0  0  0  0
 24 23  1  0  0  0  0
 25 24  1  0  0  0  0
 25 26  1  0  0  0  0
 27 25  1  0  0  0  0
 27 28  1  0  0  0  0
M  END
> <Inchi_key>
KXGVEGMKQFWNSR-UHFFFAOYSA-N

> <Source>
Mulliner

> <ID>
HT0618

> <H_MFHB>
0

> <CAS>
302-95-4

> <Cholestasis>


> <Name>
desoxycholic acid

> <Class>
0

$$$$