

  -INDIGO-08031710012D

 26 27  0  0  0  0  0  0  0  0999 V2000
   -0.0260   -2.4693    0.0000 C   0  0  0  0  0  0  0  0  0  0  0  0
    1.2731   -1.7193    0.0000 C   0  0  0  0  0  0  0  0  0  0  0  0
    2.0232   -3.0183    0.0000 C   0  0  0  0  0  0  0  0  0  0  0  0
    0.5231   -0.4203    0.0000 O   0  0  0  0  0  0  0  0  0  0  0  0
   -0.9770   -0.4203    0.0000 C   0  0  0  0  0  0  0  0  0  0  0  0
   -1.7270    0.8788    0.0000 C   0  0  0  0  0  0  0  0  0  0  0  0
   -3.2268    0.8788    0.0000 C   0  0  0  0  0  0  0  0  0  0  0  0
   -3.9768   -0.4203    0.0000 C   0  0  0  0  0  0  0  0  0  0  0  0
   -5.4769   -0.4203    0.0000 Cl  0  0  0  0  0  0  0  0  0  0  0  0
   -3.2268   -1.7193    0.0000 C   0  0  0  0  0  0  0  0  0  0  0  0
   -1.7270   -1.7193    0.0000 C   0  0  0  0  0  0  0  0  0  0  0  0
    2.5723   -0.9693    0.0000 C   0  0  0  0  0  0  0  0  0  0  0  0
    2.5723    0.5307    0.0000 O   0  0  0  0  0  0  0  0  0  0  0  0
    3.8711   -1.7193    0.0000 O   0  0  0  0  0  0  0  0  0  0  0  0
    5.1703   -0.9693    0.0000 C   0  0  0  0  0  0  0  0  0  0  0  0
    6.4692   -1.7193    0.0000 C   0  0  0  0  0  0  0  0  0  0  0  0
    7.7683   -0.9693    0.0000 C   0  0  0  0  0  0  0  0  0  0  0  0
    9.0672   -1.7193    0.0000 O   0  0  0  0  0  0  0  0  0  0  0  0
   10.3663   -0.9693    0.0000 C   0  0  0  0  0  0  0  0  0  0  0  0
   10.3663    0.5307    0.0000 O   0  0  0  0  0  0  0  0  0  0  0  0
   11.6655   -1.7193    0.0000 C   0  0  0  0  0  0  0  0  0  0  0  0
   11.6655   -3.2193    0.0000 C   0  0  0  0  0  0  0  0  0  0  0  0
   12.9646   -3.9693    0.0000 C   0  0  0  0  0  0  0  0  0  0  0  0
   14.2635   -3.2193    0.0000 C   0  0  0  0  0  0  0  0  0  0  0  0
   14.2635   -1.7193    0.0000 N   0  0  0  0  0  0  0  0  0  0  0  0
   12.9646   -0.9693    0.0000 C   0  0  0  0  0  0  0  0  0  0  0  0
  1  2  1  0  0  0  0
  2  3  1  0  0  0  0
  2  4  1  0  0  0  0
  2 12  1  0  0  0  0
  4  5  1  0  0  0  0
  6  5  2  0  0  0  0
  5 11  1  0  0  0  0
  7  6  1  0  0  0  0
  8  7  2  0  0  0  0
  8  9  1  0  0  0  0
 10  8  1  0  0  0  0
 11 10  2  0  0  0  0
 12 13  2  0  0  0  0
 12 14  1  0  0  0  0
 14 15  1  0  0  0  0
 15 16  1  0  0  0  0
 16 17  1  0  0  0  0
 17 18  1  0  0  0  0
 18 19  1  0  0  0  0
 19 20  2  0  0  0  0
 19 21  1  0  0  0  0
 22 21  2  0  0  0  0
 21 26  1  0  0  0  0
 23 22  1  0  0  0  0
 24 23  2  0  0  0  0
 25 24  1  0  0  0  0
 26 25  2  0  0  0  0
M  END
> <Inchi_key>
AYJVGKWCGIYEAK-UHFFFAOYSA-N

> <Source>
Mulliner

> <ID>
HT1844

> <H_MFHB>
0

> <CAS>
42597-57-9

> <Cholestasis>


> <Name>
ronifibrate

> <Class>
0


$$$$