

  -INDIGO-08031710012D

 30 33  0  0  0  0  0  0  0  0999 V2000
   16.6351   -0.1511    0.0000 C   0  0  0  0  0  0  0  0  0  0  0  0
   15.2087   -0.6151    0.0000 C   0  0  0  0  0  0  0  0  0  0  0  0
   14.8976   -2.0825    0.0000 C   0  0  0  0  0  0  0  0  0  0  0  0
   13.4709   -2.5465    0.0000 C   0  0  0  0  0  0  0  0  0  0  0  0
   12.3559   -1.5433    0.0000 C   0  0  0  0  0  0  0  0  0  0  0  0
   10.9295   -2.0073    0.0000 C   0  0  0  0  0  0  0  0  0  0  0  0
   10.6181   -3.4747    0.0000 C   0  0  0  0  0  0  0  0  0  0  0  0
    9.8145   -1.0040    0.0000 C   0  0  0  0  0  0  0  0  0  0  0  0
    9.9707    0.4878    0.0000 C   0  0  0  0  0  0  0  0  0  0  0  0
    8.6001    1.0974    0.0000 C   0  0  0  0  0  0  0  0  0  0  0  0
    7.5968   -0.0177    0.0000 C   0  0  0  0  0  0  0  0  0  0  0  0
    6.0970   -0.0183    0.0000 C   0  0  0  0  0  0  0  0  0  0  0  0
    5.3464    1.2805    0.0000 C   0  0  0  0  0  0  0  0  0  0  0  0
    3.8463    1.2799    0.0000 C   0  0  0  0  0  0  0  0  0  0  0  0
    3.0968   -0.0194    0.0000 C   0  0  0  0  0  0  0  0  0  0  0  0
    1.5969   -0.0200    0.0000 C   0  0  0  0  0  0  0  0  0  0  0  0
    0.8474   -1.3193    0.0000 C   0  0  0  0  0  0  0  0  0  0  0  0
   -0.6527   -1.3199    0.0000 O   0  0  0  0  0  0  0  0  0  0  0  0
    1.5978   -2.6180    0.0000 C   0  0  0  0  0  0  0  0  0  0  0  0
    3.0979   -2.6175    0.0000 C   0  0  0  0  0  0  0  0  0  0  0  0
    3.8474   -1.3182    0.0000 C   0  0  0  0  0  0  0  0  0  0  0  0
    4.5977   -2.6169    0.0000 C   0  0  0  0  0  0  0  0  0  0  0  0
    5.3472   -1.3176    0.0000 C   0  0  0  0  0  0  0  0  0  0  0  0
    6.0978   -2.6163    0.0000 C   0  0  0  0  0  0  0  0  0  0  0  0
    7.5977   -2.6158    0.0000 C   0  0  0  0  0  0  0  0  0  0  0  0
    8.3472   -1.3165    0.0000 C   0  0  0  0  0  0  0  0  0  0  0  0
    9.2082   -2.5449    0.0000 C   0  0  0  0  0  0  0  0  0  0  0  0
   16.0126   -3.0857    0.0000 C   0  0  0  0  0  0  0  0  0  0  0  0
   17.4390   -2.6217    0.0000 C   0  0  0  0  0  0  0  0  0  0  0  0
   15.7012   -4.5531    0.0000 C   0  0  0  0  0  0  0  0  0  0  0  0
  1  2  1  0  0  0  0
  2  3  1  0  0  0  0
  3  4  1  0  0  0  0
  3 28  1  0  0  0  0
  4  5  1  0  0  0  0
  5  6  1  0  0  0  0
  6  7  1  0  0  0  0
  6  8  1  0  0  0  0
  9  8  1  0  0  0  0
  8 26  1  0  0  0  0
 10  9  1  0  0  0  0
 11 10  1  0  0  0  0
 12 11  1  0  0  0  0
 11 26  1  0  0  0  0
 13 12  1  0  0  0  0
 12 23  1  0  0  0  0
 14 13  1  0  0  0  0
 15 14  2  0  0  0  0
 16 15  1  0  0  0  0
 15 21  1  0  0  0  0
 17 16  1  0  0  0  0
 17 18  1  0  0  0  0
 19 17  1  0  0  0  0
 20 19  1  0  0  0  0
 21 20  1  0  0  0  0
 21 22  1  0  0  0  0
 23 21  1  0  0  0  0
 24 23  1  0  0  0  0
 25 24  1  0  0  0  0
 26 25  1  0  0  0  0
 26 27  1  0  0  0  0
 28 29  1  0  0  0  0
 28 30  1  0  0  0  0
M  END
> <Inchi_key>
KZJWDPNRJALLNS-UHFFFAOYSA-N

> <Source>
Mulliner

> <ID>
HT0274

> <H_MFHB>
0

> <CAS>


> <Cholestasis>


> <Name>
beta-sitosterol

> <Class>
0


$$$$