

  -INDIGO-08031710012D

 10 10  0  0  0  0  0  0  0  0999 V2000
    7.3873   -0.4206    0.0000 C   0  0  0  0  0  0  0  0  0  0  0  0
    6.0883    0.3294    0.0000 C   0  0  0  0  0  0  0  0  0  0  0  0
    6.0883    1.8294    0.0000 N   0  0  0  0  0  0  0  0  0  0  0  0
    4.7892   -0.4206    0.0000 C   0  0  0  0  0  0  0  0  0  0  0  0
    3.4902    0.3294    0.0000 C   0  0  0  0  0  0  0  0  0  0  0  0
    2.1912   -0.4206    0.0000 C   0  0  0  0  0  0  0  0  0  0  0  0
    0.8921    0.3294    0.0000 C   0  0  0  0  0  0  0  0  0  0  0  0
    0.8921    1.8294    0.0000 C   0  0  0  0  0  0  0  0  0  0  0  0
    2.1912    2.5794    0.0000 C   0  0  0  0  0  0  0  0  0  0  0  0
    3.4902    1.8294    0.0000 C   0  0  0  0  0  0  0  0  0  0  0  0
  1  2  1  0  0  0  0
  2  3  1  0  0  0  0
  2  4  1  0  0  0  0
  4  5  1  0  0  0  0
  6  5  2  0  0  0  0
  5 10  1  0  0  0  0
  7  6  1  0  0  0  0
  8  7  2  0  0  0  0
  9  8  1  0  0  0  0
 10  9  2  0  0  0  0
M  END
> <Inchi_key>
KWTSXDURSIMDCE-UHFFFAOYSA-N

> <Source>
Mulliner

> <ID>
HT0151

> <H_MFHB>
0

> <CAS>
60-13-9

> <Cholestasis>


> <Name>
amphetamine sulfate;dexamfetamine;dextroamphetamine sulfate;dextroamphetamine

> <Class>
0


$$$$