

  -INDIGO-08031710012D

 46 52  0  0  0  0  0  0  0  0999 V2000
   -4.7189    7.7331    0.0000 C   0  0  0  0  0  0  0  0  0  0  0  0
   -4.7189    6.2333    0.0000 O   0  0  0  0  0  0  0  0  0  0  0  0
   -3.4198    5.4832    0.0000 C   0  0  0  0  0  0  0  0  0  0  0  0
   -2.1208    6.2333    0.0000 C   0  0  0  0  0  0  0  0  0  0  0  0
   -0.8218    5.4832    0.0000 C   0  0  0  0  0  0  0  0  0  0  0  0
   -0.8218    3.9831    0.0000 C   0  0  0  0  0  0  0  0  0  0  0  0
   -2.1208    3.2332    0.0000 C   0  0  0  0  0  0  0  0  0  0  0  0
   -2.1208    1.7331    0.0000 O   0  0  0  0  0  0  0  0  0  0  0  0
   -3.4198    0.9832    0.0000 C   0  0  0  0  0  0  0  0  0  0  0  0
   -3.4198    3.9831    0.0000 C   0  0  0  0  0  0  0  0  0  0  0  0
   -4.7189    3.2332    0.0000 O   0  0  0  0  0  0  0  0  0  0  0  0
   -6.0179    3.9831    0.0000 P   0  0  0  0  0  0  0  0  0  0  0  0
   -5.2678    5.2822    0.0000 O   0  0  0  0  0  0  0  0  0  0  0  0
   -7.3169    4.7332    0.0000 O   0  0  0  0  0  0  0  0  0  0  0  0
   -6.7677    2.6842    0.0000 O   0  0  0  0  0  0  0  0  0  0  0  0
    0.4775    6.2333    0.0000 C   0  0  0  0  0  0  0  0  0  0  0  0
    1.7765    5.4832    0.0000 C   0  0  0  0  0  0  0  0  0  0  0  0
    3.0756    6.2333    0.0000 C   0  0  0  0  0  0  0  0  0  0  0  0
    4.1903    5.2294    0.0000 C   0  0  0  0  0  0  0  0  0  0  0  0
    3.5801    3.8592    0.0000 O   0  0  0  0  0  0  0  0  0  0  0  0
    2.0882    4.0159    0.0000 C   0  0  0  0  0  0  0  0  0  0  0  0
    1.0847    2.9013    0.0000 O   0  0  0  0  0  0  0  0  0  0  0  0
    3.0756    7.7331    0.0000 C   0  0  0  0  0  0  0  0  0  0  0  0
    4.3746    8.4833    0.0000 O   0  0  0  0  0  0  0  0  0  0  0  0
    5.6736    7.7331    0.0000 C   0  0  0  0  0  0  0  0  0  0  0  0
    5.6736    6.2333    0.0000 O   0  0  0  0  0  0  0  0  0  0  0  0
    6.9726    5.4832    0.0000 C   0  0  0  0  0  0  0  0  0  0  0  0
    6.9726    3.9831    0.0000 C   0  0  0  0  0  0  0  0  0  0  0  0
    8.2717    3.2332    0.0000 O   0  0  0  0  0  0  0  0  0  0  0  0
    9.5707    3.9831    0.0000 C   0  0  0  0  0  0  0  0  0  0  0  0
   10.8697    3.2332    0.0000 C   0  0  0  0  0  0  0  0  0  0  0  0
    9.5707    5.4832    0.0000 O   0  0  0  0  0  0  0  0  0  0  0  0
    8.2717    6.2333    0.0000 C   0  0  0  0  0  0  0  0  0  0  0  0
    8.2717    7.7331    0.0000 C   0  0  0  0  0  0  0  0  0  0  0  0
    9.5707    8.4833    0.0000 O   0  0  0  0  0  0  0  0  0  0  0  0
    6.9726    8.4833    0.0000 C   0  0  0  0  0  0  0  0  0  0  0  0
    6.9726    9.9831    0.0000 O   0  0  0  0  0  0  0  0  0  0  0  0
    1.7765    8.4833    0.0000 C   0  0  0  0  0  0  0  0  0  0  0  0
    1.7765    9.9831    0.0000 C   0  0  0  0  0  0  0  0  0  0  0  0
    0.4775   10.7332    0.0000 C   0  0  0  0  0  0  0  0  0  0  0  0
    0.1656   12.2005    0.0000 O   0  0  0  0  0  0  0  0  0  0  0  0
   -1.3263   12.3572    0.0000 C   0  0  0  0  0  0  0  0  0  0  0  0
   -1.9363   10.9870    0.0000 O   0  0  0  0  0  0  0  0  0  0  0  0
   -0.8218    9.9831    0.0000 C   0  0  0  0  0  0  0  0  0  0  0  0
   -0.8218    8.4833    0.0000 C   0  0  0  0  0  0  0  0  0  0  0  0
    0.4775    7.7331    0.0000 C   0  0  0  0  0  0  0  0  0  0  0  0
  1  2  1  0  0  0  0
  2  3  1  0  0  0  0
  4  3  2  0  0  0  0
  3 10  1  0  0  0  0
  5  4  1  0  0  0  0
  6  5  2  0  0  0  0
  5 16  1  0  0  0  0
  7  6  1  0  0  0  0
  7  8  1  0  0  0  0
 10  7  2  0  0  0  0
  8  9  1  0  0  0  0
 10 11  1  0  0  0  0
 11 12  1  0  0  0  0
 12 13  2  0  0  0  0
 12 14  1  0  0  0  0
 12 15  1  0  0  0  0
 17 16  1  0  0  0  0
 16 46  1  0  0  0  0
 17 18  1  0  0  0  0
 21 17  1  0  0  0  0
 18 19  1  0  0  0  0
 23 18  1  0  0  0  0
 19 20  1  0  0  0  0
 20 21  1  0  0  0  0
 21 22  2  0  0  0  0
 23 24  1  0  0  0  0
 38 23  1  0  0  0  0
 24 25  1  0  0  0  0
 26 25  1  0  0  0  0
 25 36  1  0  0  0  0
 27 26  1  0  0  0  0
 28 27  1  0  0  0  0
 27 33  1  0  0  0  0
 29 28  1  0  0  0  0
 30 29  1  0  0  0  0
 30 31  1  0  0  0  0
 32 30  1  0  0  0  0
 33 32  1  0  0  0  0
 34 33  1  0  0  0  0
 34 35  1  0  0  0  0
 36 34  1  0  0  0  0
 36 37  1  0  0  0  0
 39 38  1  0  0  0  0
 38 46  2  0  0  0  0
 40 39  2  0  0  0  0
 41 40  1  0  0  0  0
 40 44  1  0  0  0  0
 42 41  1  0  0  0  0
 43 42  1  0  0  0  0
 44 43  1  0  0  0  0
 45 44  2  0  0  0  0
 46 45  1  0  0  0  0
M  END
> <Inchi_key>
LIQODXNTTZAGID-UHFFFAOYSA-N

> <Source>
Mulliner

> <ID>
HT0832

> <H_MFHB>
0

> <CAS>


> <Cholestasis>


> <Name>
etoposide phosphate

> <Class>
0


$$$$