
  -INDIGO-08031710012D

 15 15  0  0  0  0  0  0  0  0999 V2000
   11.0292   -2.9553    0.0000 C   0  0  0  0  0  0  0  0  0  0  0  0
    9.7301   -2.2053    0.0000 C   0  0  0  0  0  0  0  0  0  0  0  0
    9.7301   -0.7053    0.0000 C   0  0  0  0  0  0  0  0  0  0  0  0
    8.4311   -2.9553    0.0000 N   0  0  0  0  0  0  0  0  0  0  0  0
    7.1320   -2.2053    0.0000 C   0  0  0  0  0  0  0  0  0  0  0  0
    5.8330   -2.9553    0.0000 C   0  0  0  0  0  0  0  0  0  0  0  0
    5.8330   -4.4553    0.0000 O   0  0  0  0  0  0  0  0  0  0  0  0
    4.5341   -2.2053    0.0000 C   0  0  0  0  0  0  0  0  0  0  0  0
    4.5341   -0.7053    0.0000 C   0  0  0  0  0  0  0  0  0  0  0  0
    3.2349    0.0447    0.0000 C   0  0  0  0  0  0  0  0  0  0  0  0
    3.2349    1.5447    0.0000 O   0  0  0  0  0  0  0  0  0  0  0  0
    1.9360   -0.7053    0.0000 C   0  0  0  0  0  0  0  0  0  0  0  0
    1.9360   -2.2053    0.0000 C   0  0  0  0  0  0  0  0  0  0  0  0
    0.6369   -2.9553    0.0000 O   0  0  0  0  0  0  0  0  0  0  0  0
    3.2349   -2.9553    0.0000 C   0  0  0  0  0  0  0  0  0  0  0  0
  1  2  1  0  0  0  0
  2  3  1  0  0  0  0
  2  4  1  0  0  0  0
  4  5  1  0  0  0  0
  5  6  1  0  0  0  0
  6  7  1  0  0  0  0
  6  8  1  0  0  0  0
  9  8  2  0  0  0  0
  8 15  1  0  0  0  0
 10  9  1  0  0  0  0
 10 11  1  0  0  0  0
 12 10  2  0  0  0  0
 13 12  1  0  0  0  0
 13 14  1  0  0  0  0
 15 13  2  0  0  0  0
M  END
> <Inchi_key>
LMOINURANNBYCM-UHFFFAOYSA-N

> <Source>
Mulliner , Kotsampasakou

> <ID>
EK0325;HT1324

> <H_MFHB>
0

> <CAS>
5874-97-5

> <Cholestasis>
0

> <Name>
metaproterenol sulfate;orciprenaline;metaproterenol

> <Class>
0

$$$$