
  -INDIGO-08031710012D

 25 28  0  0  0  0  0  0  0  0999 V2000
    0.6225    0.1129    0.0000 O   0  0  0  0  0  0  0  0  0  0  0  0
    2.0714   -0.2753    0.0000 C   0  0  0  0  0  0  0  0  0  0  0  0
    1.9406   -1.7696    0.0000 C   0  0  0  0  0  0  0  0  0  0  0  0
    0.8800   -2.8303    0.0000 C   0  0  0  0  0  0  0  0  0  0  0  0
   -0.5689   -2.4421    0.0000 C   0  0  0  0  0  0  0  0  0  0  0  0
   -1.4294   -1.2133    0.0000 C   0  0  0  0  0  0  0  0  0  0  0  0
   -0.3686   -0.1527    0.0000 O   0  0  0  0  0  0  0  0  0  0  0  0
   -2.9236   -1.3441    0.0000 O   0  0  0  0  0  0  0  0  0  0  0  0
   -3.5574   -2.7035    0.0000 C   0  0  0  0  0  0  0  0  0  0  0  0
   -5.0518   -2.8343    0.0000 C   0  0  0  0  0  0  0  0  0  0  0  0
   -5.6857   -4.1937    0.0000 C   0  0  0  0  0  0  0  0  0  0  0  0
   -4.8252   -5.4225    0.0000 C   0  0  0  0  0  0  0  0  0  0  0  0
   -3.3311   -5.2917    0.0000 C   0  0  0  0  0  0  0  0  0  0  0  0
   -2.6972   -3.9323    0.0000 C   0  0  0  0  0  0  0  0  0  0  0  0
   -1.2028   -3.8015    0.0000 C   0  0  0  0  0  0  0  0  0  0  0  0
   -0.3426   -5.0303    0.0000 O   0  0  0  0  0  0  0  0  0  0  0  0
    3.1693   -2.6300    0.0000 C   0  0  0  0  0  0  0  0  0  0  0  0
    3.0387   -4.1243    0.0000 O   0  0  0  0  0  0  0  0  0  0  0  0
    4.5289   -1.9961    0.0000 C   0  0  0  0  0  0  0  0  0  0  0  0
    5.7576   -2.8564    0.0000 C   0  0  0  0  0  0  0  0  0  0  0  0
    7.1170   -2.2225    0.0000 C   0  0  0  0  0  0  0  0  0  0  0  0
    7.2478   -0.7282    0.0000 C   0  0  0  0  0  0  0  0  0  0  0  0
    6.0191    0.1321    0.0000 C   0  0  0  0  0  0  0  0  0  0  0  0
    4.6595   -0.5018    0.0000 C   0  0  0  0  0  0  0  0  0  0  0  0
    3.4308    0.3586    0.0000 O   0  0  0  0  0  0  0  0  0  0  0  0
  1  2  1  0  0  0  0
  3  2  2  0  0  0  0
  2 25  1  0  0  0  0
  3  4  1  0  0  0  0
 17  3  1  0  0  0  0
  4  5  1  0  0  0  0
  6  5  2  0  0  0  0
  5 15  1  0  0  0  0
  6  7  1  0  0  0  0
  8  6  1  0  0  0  0
  9  8  1  0  0  0  0
 10  9  2  0  0  0  0
  9 14  1  0  0  0  0
 11 10  1  0  0  0  0
 12 11  2  0  0  0  0
 13 12  1  0  0  0  0
 14 13  2  0  0  0  0
 15 14  1  0  0  0  0
 15 16  2  0  0  0  0
 17 18  2  0  0  0  0
 19 17  1  0  0  0  0
 20 19  1  0  0  0  0
 19 24  2  0  0  0  0
 21 20  2  0  0  0  0
 22 21  1  0  0  0  0
 23 22  2  0  0  0  0
 24 23  1  0  0  0  0
 25 24  1  0  0  0  0
M  END
> <Inchi_key>
KSKRYQVHJQRUNC-UHFFFAOYSA-N

> <Source>
Mulliner

> <ID>
HT0650

> <H_MFHB>
0

> <CAS>


> <Cholestasis>


> <Name>
dicumarol

> <Class>
0

$$$$