

  -INDIGO-08031710012D

 21 21  0  0  0  0  0  0  0  0999 V2000
   -2.6429    7.7942    0.0000 C   0  0  0  0  0  0  0  0  0  0  0  0
   -1.8928    6.4953    0.0000 C   0  0  0  0  0  0  0  0  0  0  0  0
   -0.3929    6.4953    0.0000 C   0  0  0  0  0  0  0  0  0  0  0  0
    0.3571    5.1962    0.0000 O   0  0  0  0  0  0  0  0  0  0  0  0
    1.8570    5.1962    0.0000 C   0  0  0  0  0  0  0  0  0  0  0  0
    2.6071    6.4953    0.0000 C   0  0  0  0  0  0  0  0  0  0  0  0
    4.1070    6.4953    0.0000 C   0  0  0  0  0  0  0  0  0  0  0  0
    4.8571    5.1962    0.0000 C   0  0  0  0  0  0  0  0  0  0  0  0
    4.1070    3.8971    0.0000 C   0  0  0  0  0  0  0  0  0  0  0  0
    2.6071    3.8971    0.0000 C   0  0  0  0  0  0  0  0  0  0  0  0
    1.8570    2.5981    0.0000 N   0  0  0  0  0  0  0  0  0  0  0  0
    6.3572    5.1962    0.0000 C   0  0  0  0  0  0  0  0  0  0  0  0
    7.1070    3.8971    0.0000 O   0  0  0  0  0  0  0  0  0  0  0  0
    7.1070    6.4953    0.0000 O   0  0  0  0  0  0  0  0  0  0  0  0
    8.6072    6.4953    0.0000 C   0  0  0  0  0  0  0  0  0  0  0  0
    9.3570    7.7942    0.0000 C   0  0  0  0  0  0  0  0  0  0  0  0
   10.8571    7.7942    0.0000 N   0  0  0  0  0  0  0  0  0  0  0  0
   11.6072    6.4953    0.0000 C   0  0  0  0  0  0  0  0  0  0  0  0
   13.1071    6.4953    0.0000 C   0  0  0  0  0  0  0  0  0  0  0  0
   11.6072    9.0933    0.0000 C   0  0  0  0  0  0  0  0  0  0  0  0
   10.8571   10.3923    0.0000 C   0  0  0  0  0  0  0  0  0  0  0  0
  1  2  1  0  0  0  0
  2  3  1  0  0  0  0
  3  4  1  0  0  0  0
  4  5  1  0  0  0  0
  6  5  2  0  0  0  0
  5 10  1  0  0  0  0
  7  6  1  0  0  0  0
  8  7  2  0  0  0  0
  9  8  1  0  0  0  0
  8 12  1  0  0  0  0
 10  9  2  0  0  0  0
 10 11  1  0  0  0  0
 12 13  2  0  0  0  0
 12 14  1  0  0  0  0
 14 15  1  0  0  0  0
 15 16  1  0  0  0  0
 16 17  1  0  0  0  0
 17 18  1  0  0  0  0
 17 20  1  0  0  0  0
 18 19  1  0  0  0  0
 20 21  1  0  0  0  0
M  END
> <Inchi_key>
KCLANYCVBBTKTO-UHFFFAOYSA-N

> <Source>
Mulliner , Kotsampasakou

> <ID>
EK0456;HT1759

> <H_MFHB>
0

> <CAS>


> <Cholestasis>
0

> <Name>
proparacaine;proxymetacaine

> <Class>
0


$$$$