

  -INDIGO-08031710012D

 18 19  0  0  0  0  0  0  0  0999 V2000
    0.6035    4.2390    0.0000 C   0  0  0  0  0  0  0  0  0  0  0  0
    1.3435    2.9343    0.0000 N   0  0  0  0  0  0  0  0  0  0  0  0
    0.5836    1.6410    0.0000 C   0  0  0  0  0  0  0  0  0  0  0  0
   -0.9163    1.6525    0.0000 O   0  0  0  0  0  0  0  0  0  0  0  0
    1.3236    0.3363    0.0000 N   0  0  0  0  0  0  0  0  0  0  0  0
    0.5637   -0.9570    0.0000 C   0  0  0  0  0  0  0  0  0  0  0  0
    2.8237    0.3248    0.0000 C   0  0  0  0  0  0  0  0  0  0  0  0
    3.8186   -0.7976    0.0000 N   0  0  0  0  0  0  0  0  0  0  0  0
    5.1936   -0.1980    0.0000 C   0  0  0  0  0  0  0  0  0  0  0  0
    5.0482    1.2949    0.0000 N   0  0  0  0  0  0  0  0  0  0  0  0
    6.1707    2.2900    0.0000 C   0  0  0  0  0  0  0  0  0  0  0  0
    7.5937    1.8156    0.0000 C   0  0  0  0  0  0  0  0  0  0  0  0
    7.8943    0.3460    0.0000 O   0  0  0  0  0  0  0  0  0  0  0  0
    8.7162    2.8107    0.0000 C   0  0  0  0  0  0  0  0  0  0  0  0
   10.1391    2.3363    0.0000 O   0  0  0  0  0  0  0  0  0  0  0  0
    3.5835    1.6180    0.0000 C   0  0  0  0  0  0  0  0  0  0  0  0
    2.8436    2.9228    0.0000 C   0  0  0  0  0  0  0  0  0  0  0  0
    3.6035    4.2160    0.0000 O   0  0  0  0  0  0  0  0  0  0  0  0
  1  2  1  0  0  0  0
  3  2  1  0  0  0  0
  2 17  1  0  0  0  0
  3  4  2  0  0  0  0
  5  3  1  0  0  0  0
  5  6  1  0  0  0  0
  7  5  1  0  0  0  0
  8  7  1  0  0  0  0
  7 16  2  0  0  0  0
  9  8  2  0  0  0  0
 10  9  1  0  0  0  0
 10 11  1  0  0  0  0
 16 10  1  0  0  0  0
 11 12  1  0  0  0  0
 12 13  1  0  0  0  0
 12 14  1  0  0  0  0
 14 15  1  0  0  0  0
 17 16  1  0  0  0  0
 17 18  2  0  0  0  0
M  END
> <Inchi_key>
KSCFJBIXMNOVSH-UHFFFAOYSA-N

> <Source>
Mulliner

> <ID>
HT0736

> <H_MFHB>
0

> <CAS>


> <Cholestasis>


> <Name>
dyphylline

> <Class>
0


$$$$