

  -INDIGO-08031710012D

 32 33  0  0  0  0  0  0  0  0999 V2000
   -0.0000   -5.6834    0.0000 C   0  0  0  0  0  0  0  0  0  0  0  0
    1.5001   -5.6834    0.0000 N   0  0  0  0  0  0  0  0  0  0  0  0
    2.2500   -6.9822    0.0000 C   0  0  0  0  0  0  0  0  0  0  0  0
    1.5001   -8.2814    0.0000 O   0  0  0  0  0  0  0  0  0  0  0  0
    3.7499   -6.9822    0.0000 C   0  0  0  0  0  0  0  0  0  0  0  0
    2.2500   -4.3843    0.0000 C   0  0  0  0  0  0  0  0  0  0  0  0
    1.5001   -3.0852    0.0000 C   0  0  0  0  0  0  0  0  0  0  0  0
   -0.0000   -3.0852    0.0000 I   0  0  0  0  0  0  0  0  0  0  0  0
    2.2500   -1.7861    0.0000 C   0  0  0  0  0  0  0  0  0  0  0  0
    1.5001   -0.4871    0.0000 N   0  0  0  0  0  0  0  0  0  0  0  0
   -0.0000   -0.4871    0.0000 C   0  0  0  0  0  0  0  0  0  0  0  0
   -0.7500    0.8119    0.0000 O   0  0  0  0  0  0  0  0  0  0  0  0
   -0.7500   -1.7861    0.0000 C   0  0  0  0  0  0  0  0  0  0  0  0
    3.7499   -1.7861    0.0000 C   0  0  0  0  0  0  0  0  0  0  0  0
    4.4999   -0.4871    0.0000 I   0  0  0  0  0  0  0  0  0  0  0  0
    4.4999   -3.0852    0.0000 C   0  0  0  0  0  0  0  0  0  0  0  0
    6.0000   -3.0852    0.0000 C   0  0  0  0  0  0  0  0  0  0  0  0
    6.7500   -4.3843    0.0000 O   0  0  0  0  0  0  0  0  0  0  0  0
    6.7500   -1.7861    0.0000 N   0  0  0  0  0  0  0  0  0  0  0  0
    8.2501   -1.7861    0.0000 C   0  0  0  0  0  0  0  0  0  0  0  0
    9.0001   -3.0852    0.0000 C   0  0  0  0  0  0  0  0  0  0  0  0
    8.2501   -4.3843    0.0000 O   0  0  0  0  0  0  0  0  0  0  0  0
   10.5000   -3.0852    0.0000 O   0  0  0  0  0  0  0  0  0  0  0  0
   11.2499   -1.7861    0.0000 C   0  0  0  0  0  0  0  0  0  0  0  0
   12.7500   -1.7861    0.0000 C   0  0  0  0  0  0  0  0  0  0  0  0
   13.5000   -3.0852    0.0000 O   0  0  0  0  0  0  0  0  0  0  0  0
   10.5000   -0.4871    0.0000 C   0  0  0  0  0  0  0  0  0  0  0  0
   11.2499    0.8119    0.0000 O   0  0  0  0  0  0  0  0  0  0  0  0
    9.0001   -0.4871    0.0000 C   0  0  0  0  0  0  0  0  0  0  0  0
    8.2501    0.8119    0.0000 O   0  0  0  0  0  0  0  0  0  0  0  0
    3.7499   -4.3843    0.0000 C   0  0  0  0  0  0  0  0  0  0  0  0
    4.4999   -5.6834    0.0000 I   0  0  0  0  0  0  0  0  0  0  0  0
  1  2  1  0  0  0  0
  2  3  1  0  0  0  0
  2  6  1  0  0  0  0
  3  4  2  0  0  0  0
  3  5  1  0  0  0  0
  7  6  2  0  0  0  0
  6 31  1  0  0  0  0
  7  8  1  0  0  0  0
  9  7  1  0  0  0  0
  9 10  1  0  0  0  0
 14  9  2  0  0  0  0
 10 11  1  0  0  0  0
 11 12  2  0  0  0  0
 11 13  1  0  0  0  0
 14 15  1  0  0  0  0
 16 14  1  0  0  0  0
 16 17  1  0  0  0  0
 31 16  2  0  0  0  0
 17 18  2  0  0  0  0
 17 19  1  0  0  0  0
 19 20  1  0  0  0  0
 21 20  1  0  0  0  0
 20 29  1  0  0  0  0
 21 22  1  0  0  0  0
 23 21  1  0  0  0  0
 24 23  1  0  0  0  0
 24 25  1  0  0  0  0
 27 24  1  0  0  0  0
 25 26  1  0  0  0  0
 27 28  1  0  0  0  0
 29 27  1  0  0  0  0
 29 30  1  0  0  0  0
 31 32  1  0  0  0  0
M  END
> <Inchi_key>
BAQCROVBDNBEEB-UHFFFAOYSA-N

> <Source>
Mulliner

> <ID>
HT1381

> <H_MFHB>
0

> <CAS>


> <Cholestasis>


> <Name>
metrizamide

> <Class>
0


$$$$