

  -INDIGO-08031710012D

 22 23  0  0  0  0  0  0  0  0999 V2000
    1.5145    0.6068    0.0000 C   0  0  0  0  0  0  0  0  0  0  0  0
    2.8134    1.3568    0.0000 C   0  0  0  0  0  0  0  0  0  0  0  0
    4.1127    0.6068    0.0000 C   0  0  0  0  0  0  0  0  0  0  0  0
    5.4116    1.3568    0.0000 C   0  0  0  0  0  0  0  0  0  0  0  0
    5.4116    2.8568    0.0000 C   0  0  0  0  0  0  0  0  0  0  0  0
    4.1127    3.6068    0.0000 C   0  0  0  0  0  0  0  0  0  0  0  0
    4.1127    5.1068    0.0000 C   0  0  0  0  0  0  0  0  0  0  0  0
    2.8134    2.8568    0.0000 N   0  0  0  0  0  0  0  0  0  0  0  0
    1.5145    3.6068    0.0000 N   0  0  0  0  0  0  0  0  0  0  0  0
    0.2156    2.8568    0.0000 C   0  0  0  0  0  0  0  0  0  0  0  0
    0.2156    1.3568    0.0000 O   0  0  0  0  0  0  0  0  0  0  0  0
   -1.0837    3.6068    0.0000 C   0  0  0  0  0  0  0  0  0  0  0  0
   -1.0837    5.1068    0.0000 C   0  0  0  0  0  0  0  0  0  0  0  0
   -2.3826    5.8568    0.0000 C   0  0  0  0  0  0  0  0  0  0  0  0
   -3.6815    5.1068    0.0000 C   0  0  0  0  0  0  0  0  0  0  0  0
   -4.9808    5.8568    0.0000 Cl  0  0  0  0  0  0  0  0  0  0  0  0
   -3.6815    3.6068    0.0000 C   0  0  0  0  0  0  0  0  0  0  0  0
   -2.3826    2.8568    0.0000 C   0  0  0  0  0  0  0  0  0  0  0  0
   -4.9808    2.8568    0.0000 S   0  0  0  0  0  0  0  0  0  0  0  0
   -4.2306    1.5577    0.0000 O   0  0  0  0  0  0  0  0  0  0  0  0
   -5.7308    4.1558    0.0000 O   0  0  0  0  0  0  0  0  0  0  0  0
   -6.2797    2.1068    0.0000 N   0  0  0  0  0  0  0  0  0  0  0  0
  1  2  1  0  0  0  0
  3  2  1  0  0  0  0
  2  8  1  0  0  0  0
  4  3  1  0  0  0  0
  5  4  1  0  0  0  0
  6  5  1  0  0  0  0
  6  7  1  0  0  0  0
  8  6  1  0  0  0  0
  8  9  1  0  0  0  0
  9 10  1  0  0  0  0
 10 11  2  0  0  0  0
 10 12  1  0  0  0  0
 13 12  2  0  0  0  0
 12 18  1  0  0  0  0
 14 13  1  0  0  0  0
 15 14  2  0  0  0  0
 15 16  1  0  0  0  0
 17 15  1  0  0  0  0
 18 17  2  0  0  0  0
 17 19  1  0  0  0  0
 19 20  2  0  0  0  0
 19 21  2  0  0  0  0
 19 22  1  0  0  0  0
M  END
> <Inchi_key>
LBXHRAWDUMTPSE-UHFFFAOYSA-N

> <Source>
Mulliner

> <ID>
HT3584

> <H_MFHB>
0

> <CAS>


> <Cholestasis>


> <Name>


> <Class>
0


$$$$