
  -INDIGO-08031710012D

 28 30  0  0  0  0  0  0  0  0999 V2000
    4.4197    9.1397    0.0000 C   0  0  0  0  0  0  0  0  0  0  0  0
    3.6697    7.8405    0.0000 O   0  0  0  0  0  0  0  0  0  0  0  0
    4.4197    6.5417    0.0000 C   0  0  0  0  0  0  0  0  0  0  0  0
    5.9195    6.5417    0.0000 C   0  0  0  0  0  0  0  0  0  0  0  0
    6.6695    5.2425    0.0000 C   0  0  0  0  0  0  0  0  0  0  0  0
    5.9195    3.9435    0.0000 C   0  0  0  0  0  0  0  0  0  0  0  0
    4.4197    3.9435    0.0000 C   0  0  0  0  0  0  0  0  0  0  0  0
    3.6697    5.2425    0.0000 C   0  0  0  0  0  0  0  0  0  0  0  0
    2.1696    5.2425    0.0000 C   0  0  0  0  0  0  0  0  0  0  0  0
    1.4196    6.5417    0.0000 O   0  0  0  0  0  0  0  0  0  0  0  0
    1.4196    3.9435    0.0000 N   0  0  0  0  0  0  0  0  0  0  0  0
   -0.0805    3.9435    0.0000 C   0  0  0  0  0  0  0  0  0  0  0  0
   -0.8303    2.6444    0.0000 C   0  0  0  0  0  0  0  0  0  0  0  0
   -2.3304    2.6444    0.0000 C   0  0  0  0  0  0  0  0  0  0  0  0
   -3.0804    1.3454    0.0000 C   0  0  0  0  0  0  0  0  0  0  0  0
   -2.3304    0.0464    0.0000 C   0  0  0  0  0  0  0  0  0  0  0  0
   -0.8303    0.0464    0.0000 N   0  0  0  0  0  0  0  0  0  0  0  0
   -0.0805    1.3454    0.0000 C   0  0  0  0  0  0  0  0  0  0  0  0
    6.6695    2.6444    0.0000 C   0  0  0  0  0  0  0  0  0  0  0  0
    5.9195    1.3454    0.0000 O   0  0  0  0  0  0  0  0  0  0  0  0
    8.1696    2.6444    0.0000 N   0  0  0  0  0  0  0  0  0  0  0  0
    8.9196    1.3454    0.0000 C   0  0  0  0  0  0  0  0  0  0  0  0
   10.4197    1.3454    0.0000 C   0  0  0  0  0  0  0  0  0  0  0  0
   11.1695    0.0464    0.0000 C   0  0  0  0  0  0  0  0  0  0  0  0
   12.6696    0.0464    0.0000 C   0  0  0  0  0  0  0  0  0  0  0  0
   13.4196    1.3454    0.0000 C   0  0  0  0  0  0  0  0  0  0  0  0
   12.6696    2.6444    0.0000 N   0  0  0  0  0  0  0  0  0  0  0  0
   11.1695    2.6444    0.0000 C   0  0  0  0  0  0  0  0  0  0  0  0
  1  2  1  0  0  0  0
  2  3  1  0  0  0  0
  4  3  2  0  0  0  0
  3  8  1  0  0  0  0
  5  4  1  0  0  0  0
  6  5  2  0  0  0  0
  7  6  1  0  0  0  0
  6 19  1  0  0  0  0
  8  7  2  0  0  0  0
  8  9  1  0  0  0  0
  9 10  2  0  0  0  0
  9 11  1  0  0  0  0
 11 12  1  0  0  0  0
 12 13  1  0  0  0  0
 14 13  2  0  0  0  0
 13 18  1  0  0  0  0
 15 14  1  0  0  0  0
 16 15  2  0  0  0  0
 17 16  1  0  0  0  0
 18 17  2  0  0  0  0
 19 20  2  0  0  0  0
 19 21  1  0  0  0  0
 21 22  1  0  0  0  0
 22 23  1  0  0  0  0
 24 23  2  0  0  0  0
 23 28  1  0  0  0  0
 25 24  1  0  0  0  0
 26 25  2  0  0  0  0
 27 26  1  0  0  0  0
 28 27  2  0  0  0  0
M  END
> <Inchi_key>
KYWCWBXGRWWINE-UHFFFAOYSA-N

> <Source>
Mulliner

> <ID>
HT1669

> <H_MFHB>
0

> <CAS>


> <Cholestasis>


> <Name>
picotamide

> <Class>
0

$$$$