
  -INDIGO-08031710012D

 35 37  0  0  0  0  0  0  0  0999 V2000
    4.2675   -9.0182    0.0000 C   0  0  0  0  0  0  0  0  0  0  0  0
    4.2675   -7.5181    0.0000 C   0  0  0  0  0  0  0  0  0  0  0  0
    5.5666   -6.7681    0.0000 C   0  0  0  0  0  0  0  0  0  0  0  0
    5.5666   -5.2682    0.0000 C   0  0  0  0  0  0  0  0  0  0  0  0
    4.2675   -4.5182    0.0000 N   0  0  0  0  0  0  0  0  0  0  0  0
    2.9684   -5.2682    0.0000 C   0  0  0  0  0  0  0  0  0  0  0  0
    2.9684   -6.7681    0.0000 C   0  0  0  0  0  0  0  0  0  0  0  0
    1.6695   -4.5182    0.0000 C   0  0  0  0  0  0  0  0  0  0  0  0
    1.6695   -3.0181    0.0000 O   0  0  0  0  0  0  0  0  0  0  0  0
    0.3704   -5.2682    0.0000 O   0  0  0  0  0  0  0  0  0  0  0  0
    4.2675   -3.0181    0.0000 C   0  0  0  0  0  0  0  0  0  0  0  0
    2.9684   -2.2681    0.0000 O   0  0  0  0  0  0  0  0  0  0  0  0
    5.5666   -2.2681    0.0000 C   0  0  0  0  0  0  0  0  0  0  0  0
    5.5666   -0.7682    0.0000 C   0  0  0  0  0  0  0  0  0  0  0  0
    4.2675   -0.0182    0.0000 C   0  0  0  0  0  0  0  0  0  0  0  0
    4.2675    1.4819    0.0000 C   0  0  0  0  0  0  0  0  0  0  0  0
    2.9684    2.2319    0.0000 N   0  0  0  0  0  0  0  0  0  0  0  0
    2.9684    3.7318    0.0000 C   0  0  0  0  0  0  0  0  0  0  0  0
    1.6695    4.4818    0.0000 N   0  0  0  0  0  0  0  0  0  0  0  0
    4.2675    4.4818    0.0000 N   0  0  0  0  0  0  0  0  0  0  0  0
    6.8654   -3.0181    0.0000 N   0  0  0  0  0  0  0  0  0  0  0  0
    8.1645   -2.2681    0.0000 S   0  0  0  0  0  0  0  0  0  0  0  0
    8.9146   -3.5673    0.0000 O   0  0  0  0  0  0  0  0  0  0  0  0
    7.4147   -0.9693    0.0000 O   0  0  0  0  0  0  0  0  0  0  0  0
    9.4636   -1.5183    0.0000 C   0  0  0  0  0  0  0  0  0  0  0  0
    9.4636   -0.0182    0.0000 C   0  0  0  0  0  0  0  0  0  0  0  0
   10.7627    0.7318    0.0000 C   0  0  0  0  0  0  0  0  0  0  0  0
   12.0616   -0.0182    0.0000 C   0  0  0  0  0  0  0  0  0  0  0  0
   12.0616   -1.5183    0.0000 C   0  0  0  0  0  0  0  0  0  0  0  0
   13.3607   -2.2681    0.0000 C   0  0  0  0  0  0  0  0  0  0  0  0
   13.3607   -3.7682    0.0000 C   0  0  0  0  0  0  0  0  0  0  0  0
   14.6598   -4.5182    0.0000 C   0  0  0  0  0  0  0  0  0  0  0  0
   12.0616   -4.5182    0.0000 C   0  0  0  0  0  0  0  0  0  0  0  0
   10.7627   -3.7682    0.0000 N   0  0  0  0  0  0  0  0  0  0  0  0
   10.7627   -2.2681    0.0000 C   0  0  0  0  0  0  0  0  0  0  0  0
  1  2  1  0  0  0  0
  3  2  1  0  0  0  0
  2  7  1  0  0  0  0
  4  3  1  0  0  0  0
  5  4  1  0  0  0  0
  6  5  1  0  0  0  0
  5 11  1  0  0  0  0
  7  6  1  0  0  0  0
  6  8  1  0  0  0  0
  8  9  2  0  0  0  0
  8 10  1  0  0  0  0
 11 12  2  0  0  0  0
 11 13  1  0  0  0  0
 13 14  1  0  0  0  0
 13 21  1  0  0  0  0
 14 15  1  0  0  0  0
 15 16  1  0  0  0  0
 16 17  1  0  0  0  0
 17 18  2  0  0  0  0
 18 19  1  0  0  0  0
 18 20  1  0  0  0  0
 21 22  1  0  0  0  0
 22 23  2  0  0  0  0
 22 24  2  0  0  0  0
 22 25  1  0  0  0  0
 26 25  2  0  0  0  0
 25 35  1  0  0  0  0
 27 26  1  0  0  0  0
 28 27  2  0  0  0  0
 29 28  1  0  0  0  0
 30 29  1  0  0  0  0
 29 35  2  0  0  0  0
 31 30  1  0  0  0  0
 31 32  1  0  0  0  0
 33 31  1  0  0  0  0
 34 33  1  0  0  0  0
 35 34  1  0  0  0  0
M  END
> <Inchi_key>
KXNPVXPOPUZYGB-UHFFFAOYSA-N

> <Source>
Mulliner

> <ID>
HT0179

> <H_MFHB>
0

> <CAS>


> <Cholestasis>


> <Name>
argatroban

> <Class>
0

$$$$