

  -INDIGO-08031710012D

 21 22  0  0  0  0  0  0  0  0999 V2000
   10.2761   -5.9329    0.0000 C   0  0  0  0  0  0  0  0  0  0  0  0
    9.5261   -4.6338    0.0000 C   0  0  0  0  0  0  0  0  0  0  0  0
   10.8250   -3.8838    0.0000 C   0  0  0  0  0  0  0  0  0  0  0  0
    8.7759   -3.3348    0.0000 C   0  0  0  0  0  0  0  0  0  0  0  0
    8.2270   -5.3838    0.0000 N   0  0  0  0  0  0  0  0  0  0  0  0
    6.9279   -4.6338    0.0000 C   0  0  0  0  0  0  0  0  0  0  0  0
    5.6290   -5.3838    0.0000 C   0  0  0  0  0  0  0  0  0  0  0  0
    5.6290   -6.8838    0.0000 O   0  0  0  0  0  0  0  0  0  0  0  0
    4.3297   -4.6338    0.0000 C   0  0  0  0  0  0  0  0  0  0  0  0
    3.0308   -5.3838    0.0000 O   0  0  0  0  0  0  0  0  0  0  0  0
    1.7319   -4.6338    0.0000 C   0  0  0  0  0  0  0  0  0  0  0  0
    1.7319   -3.1338    0.0000 C   0  0  0  0  0  0  0  0  0  0  0  0
    0.4326   -2.3838    0.0000 C   0  0  0  0  0  0  0  0  0  0  0  0
   -0.8663   -3.1338    0.0000 C   0  0  0  0  0  0  0  0  0  0  0  0
   -0.8663   -4.6338    0.0000 C   0  0  0  0  0  0  0  0  0  0  0  0
    0.4326   -5.3838    0.0000 C   0  0  0  0  0  0  0  0  0  0  0  0
    0.4326   -6.8838    0.0000 C   0  0  0  0  0  0  0  0  0  0  0  0
    1.6463   -7.7655    0.0000 C   0  0  0  0  0  0  0  0  0  0  0  0
    1.1828   -9.1921    0.0000 C   0  0  0  0  0  0  0  0  0  0  0  0
   -0.3174   -9.1921    0.0000 C   0  0  0  0  0  0  0  0  0  0  0  0
   -0.7808   -7.7655    0.0000 C   0  0  0  0  0  0  0  0  0  0  0  0
  1  2  1  0  0  0  0
  2  3  1  0  0  0  0
  2  4  1  0  0  0  0
  2  5  1  0  0  0  0
  5  6  1  0  0  0  0
  6  7  1  0  0  0  0
  7  8  1  0  0  0  0
  7  9  1  0  0  0  0
  9 10  1  0  0  0  0
 10 11  1  0  0  0  0
 12 11  2  0  0  0  0
 11 16  1  0  0  0  0
 13 12  1  0  0  0  0
 14 13  2  0  0  0  0
 15 14  1  0  0  0  0
 16 15  2  0  0  0  0
 16 17  1  0  0  0  0
 18 17  1  0  0  0  0
 17 21  1  0  0  0  0
 19 18  1  0  0  0  0
 20 19  1  0  0  0  0
 21 20  1  0  0  0  0
M  END
> <Inchi_key>
KQXKVJAGOJTNJS-UHFFFAOYSA-N

> <Source>
Mulliner , Kotsampasakou

> <ID>
EK0404;HT1610

> <H_MFHB>
0

> <CAS>


> <Cholestasis>
0

> <Name>
penbutolol

> <Class>
0


$$$$