

  -INDIGO-08031710012D

 28 30  0  0  0  0  0  0  0  0999 V2000
   -7.6157    2.0406    0.0000 F   0  0  0  0  0  0  0  0  0  0  0  0
   -8.9147    2.7905    0.0000 C   0  0  0  0  0  0  0  0  0  0  0  0
  -10.2137    3.5407    0.0000 F   0  0  0  0  0  0  0  0  0  0  0  0
   -9.6647    1.4917    0.0000 F   0  0  0  0  0  0  0  0  0  0  0  0
   -8.1647    4.0896    0.0000 C   0  0  0  0  0  0  0  0  0  0  0  0
   -8.9147    5.3887    0.0000 C   0  0  0  0  0  0  0  0  0  0  0  0
   -8.1647    6.6878    0.0000 C   0  0  0  0  0  0  0  0  0  0  0  0
   -6.6647    6.6878    0.0000 C   0  0  0  0  0  0  0  0  0  0  0  0
   -5.9147    5.3887    0.0000 C   0  0  0  0  0  0  0  0  0  0  0  0
   -4.4145    5.3887    0.0000 N   0  0  0  0  0  0  0  0  0  0  0  0
   -3.6645    6.6878    0.0000 C   0  0  0  0  0  0  0  0  0  0  0  0
   -4.4145    7.9866    0.0000 N   0  0  0  0  0  0  0  0  0  0  0  0
   -3.6645    9.2858    0.0000 C   0  0  0  0  0  0  0  0  0  0  0  0
   -2.1645    9.2858    0.0000 C   0  0  0  0  0  0  0  0  0  0  0  0
   -1.4145    7.9866    0.0000 C   0  0  0  0  0  0  0  0  0  0  0  0
   -2.1645    6.6878    0.0000 C   0  0  0  0  0  0  0  0  0  0  0  0
   -1.4145    5.3887    0.0000 C   0  0  0  0  0  0  0  0  0  0  0  0
   -2.1645    4.0896    0.0000 O   0  0  0  0  0  0  0  0  0  0  0  0
    0.0855    5.3887    0.0000 O   0  0  0  0  0  0  0  0  0  0  0  0
    0.8355    4.0896    0.0000 C   0  0  0  0  0  0  0  0  0  0  0  0
    2.3354    4.0896    0.0000 C   0  0  0  0  0  0  0  0  0  0  0  0
    3.0854    2.7905    0.0000 N   0  0  0  0  0  0  0  0  0  0  0  0
    2.3354    1.4917    0.0000 C   0  0  0  0  0  0  0  0  0  0  0  0
    3.0854    0.1925    0.0000 C   0  0  0  0  0  0  0  0  0  0  0  0
    4.5854    0.1925    0.0000 O   0  0  0  0  0  0  0  0  0  0  0  0
    5.3354    1.4917    0.0000 C   0  0  0  0  0  0  0  0  0  0  0  0
    4.5854    2.7905    0.0000 C   0  0  0  0  0  0  0  0  0  0  0  0
   -6.6647    4.0896    0.0000 C   0  0  0  0  0  0  0  0  0  0  0  0
  1  2  1  0  0  0  0
  2  3  1  0  0  0  0
  2  4  1  0  0  0  0
  2  5  1  0  0  0  0
  6  5  2  0  0  0  0
  5 28  1  0  0  0  0
  7  6  1  0  0  0  0
  8  7  2  0  0  0  0
  9  8  1  0  0  0  0
  9 10  1  0  0  0  0
 28  9  2  0  0  0  0
 10 11  1  0  0  0  0
 12 11  2  0  0  0  0
 11 16  1  0  0  0  0
 13 12  1  0  0  0  0
 14 13  2  0  0  0  0
 15 14  1  0  0  0  0
 16 15  2  0  0  0  0
 16 17  1  0  0  0  0
 17 18  2  0  0  0  0
 17 19  1  0  0  0  0
 19 20  1  0  0  0  0
 20 21  1  0  0  0  0
 21 22  1  0  0  0  0
 23 22  1  0  0  0  0
 22 27  1  0  0  0  0
 24 23  1  0  0  0  0
 25 24  1  0  0  0  0
 26 25  1  0  0  0  0
 27 26  1  0  0  0  0
M  END
> <Inchi_key>
LDXSPUSKBDTEKA-UHFFFAOYSA-N

> <Source>
Mulliner

> <ID>
HT1435

> <H_MFHB>
0

> <CAS>


> <Cholestasis>


> <Name>
morniflumate

> <Class>
0


$$$$