

  -INDIGO-08031710012D

  6  5  0  0  0  0  0  0  0  0999 V2000
    4.0401    1.0825    0.0000 O   0  0  0  0  0  0  0  0  0  0  0  0
    2.7410    0.3325    0.0000 C   0  0  0  0  0  0  0  0  0  0  0  0
    1.4420    1.0825    0.0000 C   0  0  0  0  0  0  0  0  0  0  0  0
    0.6920   -0.2165    0.0000 Cl  0  0  0  0  0  0  0  0  0  0  0  0
    2.1920    2.3816    0.0000 Cl  0  0  0  0  0  0  0  0  0  0  0  0
    0.1429    1.8325    0.0000 Cl  0  0  0  0  0  0  0  0  0  0  0  0
  1  2  1  0  0  0  0
  2  3  1  0  0  0  0
  3  4  1  0  0  0  0
  3  5  1  0  0  0  0
  3  6  1  0  0  0  0
M  END
> <Inchi_key>
KPWDGTGXUYRARH-UHFFFAOYSA-N

> <Source>
Mulliner

> <ID>
HT2623

> <H_MFHB>
0

> <CAS>


> <Cholestasis>


> <Name>


> <Class>
0


$$$$