
  -INDIGO-08031710012D

 25 28  0  0  0  0  0  0  0  0999 V2000
   -1.3569   -2.8580    0.0000 C   0  0  0  0  0  0  0  0  0  0  0  0
   -0.4087   -4.0203    0.0000 C   0  0  0  0  0  0  0  0  0  0  0  0
   -0.9413   -5.4226    0.0000 O   0  0  0  0  0  0  0  0  0  0  0  0
    1.0720   -3.7803    0.0000 C   0  0  0  0  0  0  0  0  0  0  0  0
    0.5886   -5.2004    0.0000 O   0  0  0  0  0  0  0  0  0  0  0  0
    0.9098   -2.2891    0.0000 C   0  0  0  0  0  0  0  0  0  0  0  0
    2.2779   -1.6741    0.0000 C   0  0  0  0  0  0  0  0  0  0  0  0
    3.2855   -2.7852    0.0000 C   0  0  0  0  0  0  0  0  0  0  0  0
    4.7855   -2.7799    0.0000 C   0  0  0  0  0  0  0  0  0  0  0  0
    5.5308   -1.4781    0.0000 C   0  0  0  0  0  0  0  0  0  0  0  0
    7.0310   -1.4728    0.0000 C   0  0  0  0  0  0  0  0  0  0  0  0
    7.7855   -2.7691    0.0000 C   0  0  0  0  0  0  0  0  0  0  0  0
    9.2857   -2.7637    0.0000 C   0  0  0  0  0  0  0  0  0  0  0  0
   10.0402   -4.0601    0.0000 C   0  0  0  0  0  0  0  0  0  0  0  0
   11.5402   -4.0547    0.0000 O   0  0  0  0  0  0  0  0  0  0  0  0
    9.2949   -5.3618    0.0000 C   0  0  0  0  0  0  0  0  0  0  0  0
    7.7950   -5.3672    0.0000 C   0  0  0  0  0  0  0  0  0  0  0  0
    7.0402   -4.0708    0.0000 C   0  0  0  0  0  0  0  0  0  0  0  0
    6.2950   -5.3725    0.0000 C   0  0  0  0  0  0  0  0  0  0  0  0
    5.5402   -4.0762    0.0000 C   0  0  0  0  0  0  0  0  0  0  0  0
    4.7950   -5.3779    0.0000 C   0  0  0  0  0  0  0  0  0  0  0  0
    5.5497   -6.6743    0.0000 O   0  0  0  0  0  0  0  0  0  0  0  0
    3.2950   -5.3833    0.0000 C   0  0  0  0  0  0  0  0  0  0  0  0
    2.5403   -4.0869    0.0000 C   0  0  0  0  0  0  0  0  0  0  0  0
    1.6842   -5.3188    0.0000 C   0  0  0  0  0  0  0  0  0  0  0  0
  1  2  1  0  0  0  0
  2  3  2  0  0  0  0
  2  4  1  0  0  0  0
  4  5  1  0  0  0  0
  6  4  1  0  0  0  0
  4 24  1  0  0  0  0
  7  6  1  0  0  0  0
  8  7  1  0  0  0  0
  9  8  1  0  0  0  0
  8 24  1  0  0  0  0
 10  9  1  0  0  0  0
  9 20  1  0  0  0  0
 11 10  1  0  0  0  0
 12 11  1  0  0  0  0
 13 12  2  0  0  0  0
 12 18  1  0  0  0  0
 14 13  1  0  0  0  0
 14 15  2  0  0  0  0
 16 14  1  0  0  0  0
 17 16  2  0  0  0  0
 18 17  1  0  0  0  0
 18 19  1  0  0  0  0
 20 18  1  0  0  0  0
 21 20  1  0  0  0  0
 21 22  1  0  0  0  0
 23 21  1  0  0  0  0
 24 23  1  0  0  0  0
 24 25  1  0  0  0  0
M  END
> <Inchi_key>
KQZSMOGWYFPKCH-UHFFFAOYSA-N

> <Source>
Mulliner

> <ID>
HT3578

> <H_MFHB>
0

> <CAS>


> <Cholestasis>


> <Name>


> <Class>
0

$$$$