
  -INDIGO-08031710012D

 21 22  0  0  0  0  0  0  0  0999 V2000
    1.3657   -5.0969    0.0000 C   0  0  0  0  0  0  0  0  0  0  0  0
    2.6648   -4.3468    0.0000 C   0  0  0  0  0  0  0  0  0  0  0  0
    2.6648   -2.8468    0.0000 C   0  0  0  0  0  0  0  0  0  0  0  0
    3.9638   -2.0969    0.0000 C   0  0  0  0  0  0  0  0  0  0  0  0
    3.9638   -0.5969    0.0000 N   0  0  0  0  0  0  0  0  0  0  0  0
    2.6648    0.1532    0.0000 C   0  0  0  0  0  0  0  0  0  0  0  0
    2.6648    1.6532    0.0000 C   0  0  0  0  0  0  0  0  0  0  0  0
    3.9638    2.4031    0.0000 C   0  0  0  0  0  0  0  0  0  0  0  0
    5.2629    1.6532    0.0000 C   0  0  0  0  0  0  0  0  0  0  0  0
    5.2629    0.1532    0.0000 C   0  0  0  0  0  0  0  0  0  0  0  0
    6.5619   -0.5969    0.0000 C   0  0  0  0  0  0  0  0  0  0  0  0
    6.5619   -2.0969    0.0000 O   0  0  0  0  0  0  0  0  0  0  0  0
    7.8608    0.1532    0.0000 N   0  0  0  0  0  0  0  0  0  0  0  0
    9.1599   -0.5969    0.0000 C   0  0  0  0  0  0  0  0  0  0  0  0
    9.1599   -2.0969    0.0000 C   0  0  0  0  0  0  0  0  0  0  0  0
    7.8608   -2.8468    0.0000 C   0  0  0  0  0  0  0  0  0  0  0  0
   10.4589   -2.8468    0.0000 C   0  0  0  0  0  0  0  0  0  0  0  0
   11.7580   -2.0969    0.0000 C   0  0  0  0  0  0  0  0  0  0  0  0
   11.7580   -0.5969    0.0000 C   0  0  0  0  0  0  0  0  0  0  0  0
   10.4589    0.1532    0.0000 C   0  0  0  0  0  0  0  0  0  0  0  0
   10.4589    1.6532    0.0000 C   0  0  0  0  0  0  0  0  0  0  0  0
  1  2  1  0  0  0  0
  2  3  1  0  0  0  0
  3  4  1  0  0  0  0
  4  5  1  0  0  0  0
  6  5  1  0  0  0  0
  5 10  1  0  0  0  0
  7  6  1  0  0  0  0
  8  7  1  0  0  0  0
  9  8  1  0  0  0  0
 10  9  1  0  0  0  0
 10 11  1  0  0  0  0
 11 12  2  0  0  0  0
 11 13  1  0  0  0  0
 13 14  1  0  0  0  0
 15 14  2  0  0  0  0
 14 20  1  0  0  0  0
 15 16  1  0  0  0  0
 17 15  1  0  0  0  0
 18 17  2  0  0  0  0
 19 18  1  0  0  0  0
 20 19  2  0  0  0  0
 20 21  1  0  0  0  0
M  END
> <Inchi_key>
LEBVLXFERQHONN-UHFFFAOYSA-N

> <Source>
Mulliner , Kotsampasakou

> <ID>
EK0075;HT0327

> <H_MFHB>
0

> <CAS>
27262-48-2

> <Cholestasis>
0

> <Name>
bupivacaine;bupivacaine hydrochloride;levobupivacaine hydrochloride

> <Class>
0

$$$$