

  -INDIGO-08031710012D

 16 16  0  0  0  0  0  0  0  0999 V2000
    4.0520    4.8205    0.0000 C   0  0  0  0  0  0  0  0  0  0  0  0
    2.7531    4.0705    0.0000 C   0  0  0  0  0  0  0  0  0  0  0  0
    2.7531    2.5705    0.0000 C   0  0  0  0  0  0  0  0  0  0  0  0
    4.0520    1.8205    0.0000 C   0  0  0  0  0  0  0  0  0  0  0  0
    4.0520    0.3205    0.0000 C   0  0  0  0  0  0  0  0  0  0  0  0
    5.3511    2.5705    0.0000 C   0  0  0  0  0  0  0  0  0  0  0  0
    6.6501    1.8205    0.0000 N   0  0  0  0  0  0  0  0  0  0  0  0
    7.9492    2.5705    0.0000 C   0  0  0  0  0  0  0  0  0  0  0  0
    6.6501    0.3205    0.0000 C   0  0  0  0  0  0  0  0  0  0  0  0
    1.4541    1.8205    0.0000 C   0  0  0  0  0  0  0  0  0  0  0  0
    1.4541    0.3205    0.0000 C   0  0  0  0  0  0  0  0  0  0  0  0
    0.1550   -0.4295    0.0000 C   0  0  0  0  0  0  0  0  0  0  0  0
   -1.1440    0.3205    0.0000 C   0  0  0  0  0  0  0  0  0  0  0  0
   -1.1440    1.8205    0.0000 C   0  0  0  0  0  0  0  0  0  0  0  0
   -2.4431    2.5705    0.0000 O   0  0  0  0  0  0  0  0  0  0  0  0
    0.1550    2.5705    0.0000 C   0  0  0  0  0  0  0  0  0  0  0  0
  1  2  1  0  0  0  0
  2  3  1  0  0  0  0
  3  4  1  0  0  0  0
  3 10  1  0  0  0  0
  4  5  1  0  0  0  0
  4  6  1  0  0  0  0
  6  7  1  0  0  0  0
  7  8  1  0  0  0  0
  7  9  1  0  0  0  0
 11 10  2  0  0  0  0
 10 16  1  0  0  0  0
 12 11  1  0  0  0  0
 13 12  2  0  0  0  0
 14 13  1  0  0  0  0
 14 15  1  0  0  0  0
 16 14  2  0  0  0  0
M  END
> <Inchi_key>
KWTWDQCKEHXFFR-UHFFFAOYSA-N

> <Source>
Mulliner

> <ID>
HT1980

> <H_MFHB>
0

> <CAS>


> <Cholestasis>


> <Name>
tapentadol hydrochloride;tapentadol

> <Class>
0


$$$$