

  -INDIGO-08031710012D

 30 35  0  0  0  0  0  0  0  0999 V2000
    8.8830   -1.9396    0.0000 C   0  0  0  0  0  0  0  0  0  0  0  0
    8.0729   -3.1901    0.0000 C   0  0  0  0  0  0  0  0  0  0  0  0
    6.5629   -3.2795    0.0000 C   0  0  0  0  0  0  0  0  0  0  0  0
    6.0877   -4.7273    0.0000 C   0  0  0  0  0  0  0  0  0  0  0  0
    7.3850   -5.4789    0.0000 O   0  0  0  0  0  0  0  0  0  0  0  0
    8.6063   -4.6020    0.0000 C   0  0  0  0  0  0  0  0  0  0  0  0
   10.0373   -5.0289    0.0000 O   0  0  0  0  0  0  0  0  0  0  0  0
    4.5710   -4.7056    0.0000 C   0  0  0  0  0  0  0  0  0  0  0  0
    3.7274   -5.9592    0.0000 O   0  0  0  0  0  0  0  0  0  0  0  0
    4.0525   -3.2371    0.0000 C   0  0  0  0  0  0  0  0  0  0  0  0
    3.8205   -4.6027    0.0000 C   0  0  0  0  0  0  0  0  0  0  0  0
    5.2926   -5.1125    0.0000 O   0  0  0  0  0  0  0  0  0  0  0  0
    6.1733   -3.8822    0.0000 C   0  0  0  0  0  0  0  0  0  0  0  0
    7.6558   -3.9723    0.0000 O   0  0  0  0  0  0  0  0  0  0  0  0
    5.3089   -2.5482    0.0000 C   0  0  0  0  0  0  0  0  0  0  0  0
    4.9375   -1.0611    0.0000 O   0  0  0  0  0  0  0  0  0  0  0  0
    3.4421   -0.9575    0.0000 C   0  0  0  0  0  0  0  0  0  0  0  0
    2.3001    0.0129    0.0000 O   0  0  0  0  0  0  0  0  0  0  0  0
    1.0229   -0.7636    0.0000 C   0  0  0  0  0  0  0  0  0  0  0  0
   -0.3619   -0.1841    0.0000 O   0  0  0  0  0  0  0  0  0  0  0  0
    1.3738   -2.2203    0.0000 C   0  0  0  0  0  0  0  0  0  0  0  0
    0.8322   -3.6298    0.0000 O   0  0  0  0  0  0  0  0  0  0  0  0
    2.8460   -2.3695    0.0000 C   0  0  0  0  0  0  0  0  0  0  0  0
    1.6897   -3.3703    0.0000 C   0  0  0  0  0  0  0  0  0  0  0  0
    2.2916   -4.7723    0.0000 C   0  0  0  0  0  0  0  0  0  0  0  0
    1.5363   -6.0591    0.0000 O   0  0  0  0  0  0  0  0  0  0  0  0
    0.1736   -3.3741    0.0000 C   0  0  0  0  0  0  0  0  0  0  0  0
    0.2218   -4.9134    0.0000 C   0  0  0  0  0  0  0  0  0  0  0  0
    0.0996   -1.9153    0.0000 C   0  0  0  0  0  0  0  0  0  0  0  0
   -1.3243   -3.4749    0.0000 C   0  0  0  0  0  0  0  0  0  0  0  0
  1  2  1  0  0  0  0
  3  2  1  0  0  0  0
  2  6  1  0  0  0  0
  3  4  1  0  0  0  0
 15  3  1  0  0  0  0
  5  4  1  0  0  0  0
  4  8  1  0  0  0  0
  6  5  1  0  0  0  0
  6  7  2  0  0  0  0
  8  9  1  0  0  0  0
  8 10  1  0  0  0  0
 11 10  1  0  0  0  0
 15 10  1  0  0  0  0
 10 23  1  0  0  0  0
 11 12  1  0  0  0  0
 25 11  1  0  0  0  0
 12 13  1  0  0  0  0
 13 14  2  0  0  0  0
 13 15  1  0  0  0  0
 15 16  1  0  0  0  0
 16 17  1  0  0  0  0
 17 18  1  0  0  0  0
 17 23  1  0  0  0  0
 18 19  1  0  0  0  0
 19 20  2  0  0  0  0
 19 21  1  0  0  0  0
 21 22  1  0  0  0  0
 21 23  1  0  0  0  0
 23 24  1  0  0  0  0
 24 25  1  0  0  0  0
 24 27  1  0  0  0  0
 25 26  1  0  0  0  0
 27 28  1  0  0  0  0
 27 29  1  0  0  0  0
 27 30  1  0  0  0  0
M  END
> <Inchi_key>
KDKROYXEHCYLJQ-UHFFFAOYSA-N

> <Source>
Mulliner

> <ID>
HT0979

> <H_MFHB>
0

> <CAS>


> <Cholestasis>


> <Name>
ginkgolide-m

> <Class>
0


$$$$