
  -INDIGO-08031710012D

 24 26  0  0  0  0  0  0  0  0999 V2000
    4.5501    4.5502    0.0000 O   0  0  0  0  0  0  0  0  0  0  0  0
    4.5501    3.0503    0.0000 C   0  0  0  0  0  0  0  0  0  0  0  0
    5.8494    2.3002    0.0000 O   0  0  0  0  0  0  0  0  0  0  0  0
    3.2512    2.3002    0.0000 C   0  0  0  0  0  0  0  0  0  0  0  0
    3.2512    0.8002    0.0000 C   0  0  0  0  0  0  0  0  0  0  0  0
    4.5501    0.0502    0.0000 N   0  0  0  0  0  0  0  0  0  0  0  0
    4.5501   -1.4498    0.0000 N   0  0  0  0  0  0  0  0  0  0  0  0
    5.8494   -2.1999    0.0000 C   0  0  0  0  0  0  0  0  0  0  0  0
    7.1483   -1.4498    0.0000 C   0  0  0  0  0  0  0  0  0  0  0  0
    7.1483    0.0502    0.0000 C   0  0  0  0  0  0  0  0  0  0  0  0
    8.4474    0.8002    0.0000 C   0  0  0  0  0  0  0  0  0  0  0  0
    9.7465    0.0502    0.0000 C   0  0  0  0  0  0  0  0  0  0  0  0
   11.0454    0.8002    0.0000 Br  0  0  0  0  0  0  0  0  0  0  0  0
    9.7465   -1.4498    0.0000 C   0  0  0  0  0  0  0  0  0  0  0  0
    8.4474   -2.1999    0.0000 C   0  0  0  0  0  0  0  0  0  0  0  0
    8.4474   -3.6998    0.0000 F   0  0  0  0  0  0  0  0  0  0  0  0
    3.2512   -2.1999    0.0000 C   0  0  0  0  0  0  0  0  0  0  0  0
    3.2512   -3.6998    0.0000 O   0  0  0  0  0  0  0  0  0  0  0  0
    1.9523   -1.4498    0.0000 C   0  0  0  0  0  0  0  0  0  0  0  0
    0.6530   -2.1999    0.0000 C   0  0  0  0  0  0  0  0  0  0  0  0
   -0.6459   -1.4498    0.0000 C   0  0  0  0  0  0  0  0  0  0  0  0
   -0.6459    0.0502    0.0000 C   0  0  0  0  0  0  0  0  0  0  0  0
    0.6530    0.8002    0.0000 C   0  0  0  0  0  0  0  0  0  0  0  0
    1.9523    0.0502    0.0000 C   0  0  0  0  0  0  0  0  0  0  0  0
  1  2  1  0  0  0  0
  2  3  2  0  0  0  0
  2  4  1  0  0  0  0
  4  5  1  0  0  0  0
  6  5  2  0  0  0  0
  5 24  1  0  0  0  0
  7  6  1  0  0  0  0
  7  8  1  0  0  0  0
 17  7  1  0  0  0  0
  8  9  1  0  0  0  0
 10  9  2  0  0  0  0
  9 15  1  0  0  0  0
 11 10  1  0  0  0  0
 12 11  2  0  0  0  0
 12 13  1  0  0  0  0
 14 12  1  0  0  0  0
 15 14  2  0  0  0  0
 15 16  1  0  0  0  0
 17 18  2  0  0  0  0
 19 17  1  0  0  0  0
 20 19  1  0  0  0  0
 19 24  2  0  0  0  0
 21 20  2  0  0  0  0
 22 21  1  0  0  0  0
 23 22  2  0  0  0  0
 24 23  1  0  0  0  0
M  END
> <Inchi_key>
LKBFFDOJUKLQNY-UHFFFAOYSA-N

> <Source>
Mulliner

> <ID>
HT1709

> <H_MFHB>
0

> <CAS>
72702-95-5

> <Cholestasis>


> <Name>
ponalrestat

> <Class>
0

$$$$