
  -INDIGO-08031710012D

 18 19  0  0  0  0  0  0  0  0999 V2000
   -0.0139   -4.6736    0.0000 C   0  0  0  0  0  0  0  0  0  0  0  0
    0.7299   -3.3709    0.0000 C   0  0  0  0  0  0  0  0  0  0  0  0
    1.4735   -2.0682    0.0000 C   0  0  0  0  0  0  0  0  0  0  0  0
    2.0326   -4.1145    0.0000 O   0  0  0  0  0  0  0  0  0  0  0  0
    3.3279   -3.3582    0.0000 C   0  0  0  0  0  0  0  0  0  0  0  0
    4.6306   -4.1018    0.0000 C   0  0  0  0  0  0  0  0  0  0  0  0
    5.9259   -3.3455    0.0000 C   0  0  0  0  0  0  0  0  0  0  0  0
    5.9185   -1.8455    0.0000 C   0  0  0  0  0  0  0  0  0  0  0  0
    4.6158   -1.1018    0.0000 C   0  0  0  0  0  0  0  0  0  0  0  0
    3.3205   -1.8582    0.0000 C   0  0  0  0  0  0  0  0  0  0  0  0
    7.2138   -1.0891    0.0000 C   0  0  0  0  0  0  0  0  0  0  0  0
    7.9574    0.2136    0.0000 C   0  0  0  0  0  0  0  0  0  0  0  0
    8.7137   -1.0818    0.0000 C   0  0  0  0  0  0  0  0  0  0  0  0
    9.2947   -2.4648    0.0000 Cl  0  0  0  0  0  0  0  0  0  0  0  0
   10.2000   -0.8787    0.0000 Cl  0  0  0  0  0  0  0  0  0  0  0  0
   -0.5730   -2.6273    0.0000 C   0  0  0  0  0  0  0  0  0  0  0  0
   -0.5804   -1.1273    0.0000 O   0  0  0  0  0  0  0  0  0  0  0  0
   -1.8683   -3.3836    0.0000 O   0  0  0  0  0  0  0  0  0  0  0  0
  1  2  1  0  0  0  0
  2  3  1  0  0  0  0
  2  4  1  0  0  0  0
  2 16  1  0  0  0  0
  4  5  1  0  0  0  0
  6  5  2  0  0  0  0
  5 10  1  0  0  0  0
  7  6  1  0  0  0  0
  8  7  2  0  0  0  0
  9  8  1  0  0  0  0
  8 11  1  0  0  0  0
 10  9  2  0  0  0  0
 12 11  1  0  0  0  0
 11 13  1  0  0  0  0
 13 12  1  0  0  0  0
 13 14  1  0  0  0  0
 13 15  1  0  0  0  0
 16 17  2  0  0  0  0
 16 18  1  0  0  0  0
M  END
> <Inchi_key>
KPSRODZRAIWAKH-UHFFFAOYSA-N

> <Source>
Mulliner

> <ID>
HT0496

> <H_MFHB>
0

> <CAS>
52214-84-3

> <Cholestasis>


> <Name>
ciprofibrate

> <Class>
0

$$$$