
  -INDIGO-08031709442D

 21 23  0  0  0  0  0  0  0  0999 V2000
   10.8312   -0.2420    0.0000 O   0  0  0  0  0  0  0  0  0  0  0  0
    9.3327   -0.1750    0.0000 C   0  0  0  0  0  0  0  0  0  0  0  0
    8.7432    1.2043    0.0000 N   0  0  0  0  0  0  0  0  0  0  0  0
    7.2968    1.6017    0.0000 C   0  0  0  0  0  0  0  0  0  0  0  0
    6.0839    0.7191    0.0000 C   0  0  0  0  0  0  0  0  0  0  0  0
    4.7131    1.3282    0.0000 C   0  0  0  0  0  0  0  0  0  0  0  0
    4.5553    2.8199    0.0000 C   0  0  0  0  0  0  0  0  0  0  0  0
    3.1846    3.4290    0.0000 N   0  0  0  0  0  0  0  0  0  0  0  0
    3.0267    4.9207    0.0000 O   0  0  0  0  0  0  0  0  0  0  0  0
    1.9717    2.5465    0.0000 O   0  0  0  0  0  0  0  0  0  0  0  0
    5.7682    3.7025    0.0000 C   0  0  0  0  0  0  0  0  0  0  0  0
    7.1391    3.0932    0.0000 C   0  0  0  0  0  0  0  0  0  0  0  0
    6.0169   -0.7795    0.0000 C   0  0  0  0  0  0  0  0  0  0  0  0
    7.1468   -1.7654    0.0000 N   0  0  0  0  0  0  0  0  0  0  0  0
    8.6224   -1.4962    0.0000 C   0  0  0  0  0  0  0  0  0  0  0  0
    4.6382   -1.3701    0.0000 C   0  0  0  0  0  0  0  0  0  0  0  0
    3.4372   -0.4712    0.0000 C   0  0  0  0  0  0  0  0  0  0  0  0
    2.0585   -1.0620    0.0000 C   0  0  0  0  0  0  0  0  0  0  0  0
    1.8805   -2.5515    0.0000 C   0  0  0  0  0  0  0  0  0  0  0  0
    3.0814   -3.4502    0.0000 C   0  0  0  0  0  0  0  0  0  0  0  0
    4.4603   -2.8594    0.0000 C   0  0  0  0  0  0  0  0  0  0  0  0
  1  2  2  0  0  0  0
  3  2  1  0  0  0  0
  2 15  1  0  0  0  0
  4  3  1  0  0  0  0
  4  5  2  0  0  0  0
 12  4  1  0  0  0  0
  5  6  1  0  0  0  0
 13  5  1  0  0  0  0
  6  7  2  0  0  0  0
  7  8  1  0  0  0  0
  7 11  1  0  0  0  0
  8  9  2  0  0  0  0
  8 10  1  0  0  0  0
 11 12  2  0  0  0  0
 14 13  2  0  0  0  0
 13 16  1  0  0  0  0
 15 14  1  0  0  0  0
 17 16  2  0  0  0  0
 16 21  1  0  0  0  0
 18 17  1  0  0  0  0
 19 18  2  0  0  0  0
 20 19  1  0  0  0  0
 21 20  2  0  0  0  0
M  CHG  2   8   1  10  -1
M  END
> <Inchi_key>
KJONHKAYOJNZEC-UHFFFAOYSA-N

> <Source>
Kotsampasakou

> <ID>
EK0384

> <H_MFHB>


> <CAS>


> <Cholestasis>
0

> <Name>
nitrazepam

> <Class>
0

$$$$