

  -INDIGO-08031710012D

 17 18  0  0  0  0  0  0  0  0999 V2000
    6.3713   -5.2000    0.0000 C   0  0  0  0  0  0  0  0  0  0  0  0
    6.0708   -3.7304    0.0000 C   0  0  0  0  0  0  0  0  0  0  0  0
    7.1931   -2.7353    0.0000 O   0  0  0  0  0  0  0  0  0  0  0  0
    4.6478   -3.2560    0.0000 C   0  0  0  0  0  0  0  0  0  0  0  0
    3.5253   -4.2511    0.0000 N   0  0  0  0  0  0  0  0  0  0  0  0
    3.6707   -5.7440    0.0000 C   0  0  0  0  0  0  0  0  0  0  0  0
    2.2958   -6.3436    0.0000 N   0  0  0  0  0  0  0  0  0  0  0  0
    1.3006   -5.2212    0.0000 C   0  0  0  0  0  0  0  0  0  0  0  0
   -0.1993   -5.2097    0.0000 N   0  0  0  0  0  0  0  0  0  0  0  0
   -0.9592   -6.5030    0.0000 C   0  0  0  0  0  0  0  0  0  0  0  0
   -0.9394   -3.9050    0.0000 C   0  0  0  0  0  0  0  0  0  0  0  0
   -2.4393   -3.8935    0.0000 O   0  0  0  0  0  0  0  0  0  0  0  0
   -0.1795   -2.6117    0.0000 N   0  0  0  0  0  0  0  0  0  0  0  0
   -0.9194   -1.3070    0.0000 C   0  0  0  0  0  0  0  0  0  0  0  0
    1.3206   -2.6232    0.0000 C   0  0  0  0  0  0  0  0  0  0  0  0
    2.0805   -1.3300    0.0000 O   0  0  0  0  0  0  0  0  0  0  0  0
    2.0607   -3.9280    0.0000 C   0  0  0  0  0  0  0  0  0  0  0  0
  1  2  1  0  0  0  0
  2  3  1  0  0  0  0
  2  4  1  0  0  0  0
  4  5  1  0  0  0  0
  6  5  1  0  0  0  0
  5 17  1  0  0  0  0
  7  6  2  0  0  0  0
  8  7  1  0  0  0  0
  9  8  1  0  0  0  0
  8 17  2  0  0  0  0
  9 10  1  0  0  0  0
 11  9  1  0  0  0  0
 11 12  2  0  0  0  0
 13 11  1  0  0  0  0
 13 14  1  0  0  0  0
 15 13  1  0  0  0  0
 15 16  2  0  0  0  0
 17 15  1  0  0  0  0
M  END
> <Inchi_key>
KYHQZNGJUGFTGR-UHFFFAOYSA-N

> <Source>
Mulliner

> <ID>
HT3040

> <H_MFHB>
0

> <CAS>


> <Cholestasis>


> <Name>


> <Class>
0


$$$$