

  -INDIGO-08031710012D

 20 19  0  0  0  0  0  0  0  0999 V2000
   16.3187   -2.1226    0.0000 C   0  0  0  0  0  0  0  0  0  0  0  0
   15.0197   -2.8726    0.0000 N   0  0  0  0  0  0  0  0  0  0  0  0
   14.2696   -1.5736    0.0000 C   0  0  0  0  0  0  0  0  0  0  0  0
   15.7696   -4.1716    0.0000 C   0  0  0  0  0  0  0  0  0  0  0  0
   13.7207   -3.6226    0.0000 C   0  0  0  0  0  0  0  0  0  0  0  0
   12.4217   -2.8726    0.0000 C   0  0  0  0  0  0  0  0  0  0  0  0
   11.1225   -3.6226    0.0000 O   0  0  0  0  0  0  0  0  0  0  0  0
    9.8235   -2.8726    0.0000 C   0  0  0  0  0  0  0  0  0  0  0  0
    9.8235   -1.3726    0.0000 O   0  0  0  0  0  0  0  0  0  0  0  0
    8.5245   -3.6226    0.0000 C   0  0  0  0  0  0  0  0  0  0  0  0
    7.2255   -2.8726    0.0000 C   0  0  0  0  0  0  0  0  0  0  0  0
    5.9265   -3.6226    0.0000 C   0  0  0  0  0  0  0  0  0  0  0  0
    5.9265   -5.1226    0.0000 O   0  0  0  0  0  0  0  0  0  0  0  0
    4.6275   -2.8726    0.0000 O   0  0  0  0  0  0  0  0  0  0  0  0
    3.3283   -3.6226    0.0000 C   0  0  0  0  0  0  0  0  0  0  0  0
    2.0293   -2.8726    0.0000 C   0  0  0  0  0  0  0  0  0  0  0  0
    0.7303   -3.6226    0.0000 N   0  0  0  0  0  0  0  0  0  0  0  0
    1.4804   -4.9216    0.0000 C   0  0  0  0  0  0  0  0  0  0  0  0
   -0.0196   -2.3236    0.0000 C   0  0  0  0  0  0  0  0  0  0  0  0
   -0.5687   -4.3726    0.0000 C   0  0  0  0  0  0  0  0  0  0  0  0
  1  2  1  0  0  0  0
  2  3  1  0  0  0  0
  2  4  1  0  0  0  0
  2  5  1  0  0  0  0
  5  6  1  0  0  0  0
  6  7  1  0  0  0  0
  7  8  1  0  0  0  0
  8  9  2  0  0  0  0
  8 10  1  0  0  0  0
 10 11  1  0  0  0  0
 11 12  1  0  0  0  0
 12 13  2  0  0  0  0
 12 14  1  0  0  0  0
 14 15  1  0  0  0  0
 15 16  1  0  0  0  0
 16 17  1  0  0  0  0
 17 18  1  0  0  0  0
 17 19  1  0  0  0  0
 17 20  1  0  0  0  0
M  CHG  2   2   1  17   1
M  END
> <Inchi_key>
AXOIZCJOOAYSMI-UHFFFAOYSA-N

> <Source>
Mulliner

> <ID>
HT1925

> <H_MFHB>
0

> <CAS>


> <Cholestasis>


> <Name>
succinylcholine chloride;succinylcholine

> <Class>
0


$$$$