

  -INDIGO-08031710012D

 19 21  0  0  0  0  0  0  0  0999 V2000
    1.6033    1.6744    0.0000 C   0  0  0  0  0  0  0  0  0  0  0  0
    2.9024    0.9244    0.0000 C   0  0  0  0  0  0  0  0  0  0  0  0
    2.9024   -0.5756    0.0000 N   0  0  0  0  0  0  0  0  0  0  0  0
    1.6033   -1.3256    0.0000 C   0  0  0  0  0  0  0  0  0  0  0  0
    1.6033   -2.8256    0.0000 C   0  0  0  0  0  0  0  0  0  0  0  0
    0.3043   -3.5756    0.0000 C   0  0  0  0  0  0  0  0  0  0  0  0
    0.3043   -5.0756    0.0000 O   0  0  0  0  0  0  0  0  0  0  0  0
   -0.9948   -2.8256    0.0000 O   0  0  0  0  0  0  0  0  0  0  0  0
    2.9024   -3.5756    0.0000 C   0  0  0  0  0  0  0  0  0  0  0  0
    2.9024   -5.0756    0.0000 O   0  0  0  0  0  0  0  0  0  0  0  0
    4.2014   -2.8256    0.0000 C   0  0  0  0  0  0  0  0  0  0  0  0
    5.5003   -3.5756    0.0000 C   0  0  0  0  0  0  0  0  0  0  0  0
    6.7994   -2.8256    0.0000 C   0  0  0  0  0  0  0  0  0  0  0  0
    8.2259   -3.2892    0.0000 O   0  0  0  0  0  0  0  0  0  0  0  0
    9.1077   -2.0756    0.0000 C   0  0  0  0  0  0  0  0  0  0  0  0
    8.2259   -0.8621    0.0000 O   0  0  0  0  0  0  0  0  0  0  0  0
    6.7994   -1.3256    0.0000 C   0  0  0  0  0  0  0  0  0  0  0  0
    5.5003   -0.5756    0.0000 C   0  0  0  0  0  0  0  0  0  0  0  0
    4.2014   -1.3256    0.0000 C   0  0  0  0  0  0  0  0  0  0  0  0
  1  2  1  0  0  0  0
  2  3  1  0  0  0  0
  4  3  1  0  0  0  0
  3 19  1  0  0  0  0
  5  4  2  0  0  0  0
  5  6  1  0  0  0  0
  9  5  1  0  0  0  0
  6  7  2  0  0  0  0
  6  8  1  0  0  0  0
  9 10  2  0  0  0  0
 11  9  1  0  0  0  0
 12 11  1  0  0  0  0
 11 19  2  0  0  0  0
 13 12  2  0  0  0  0
 14 13  1  0  0  0  0
 13 17  1  0  0  0  0
 15 14  1  0  0  0  0
 16 15  1  0  0  0  0
 17 16  1  0  0  0  0
 18 17  2  0  0  0  0
 19 18  1  0  0  0  0
M  END
> <Inchi_key>
KYGZCKSPAKDVKC-UHFFFAOYSA-N

> <Source>
Mulliner

> <ID>
HT3150

> <H_MFHB>
0

> <CAS>


> <Cholestasis>


> <Name>


> <Class>
0


$$$$