
  -INDIGO-08031710012D

 15 14  0  0  0  0  0  0  0  0999 V2000
   10.3560   -2.0749    0.0000 O   0  0  0  0  0  0  0  0  0  0  0  0
    9.0569   -2.8249    0.0000 C   0  0  0  0  0  0  0  0  0  0  0  0
    7.7579   -2.0749    0.0000 C   0  0  0  0  0  0  0  0  0  0  0  0
    7.7579   -0.5749    0.0000 O   0  0  0  0  0  0  0  0  0  0  0  0
    6.4588   -2.8249    0.0000 C   0  0  0  0  0  0  0  0  0  0  0  0
    6.4588   -4.3249    0.0000 O   0  0  0  0  0  0  0  0  0  0  0  0
    5.1598   -2.0749    0.0000 C   0  0  0  0  0  0  0  0  0  0  0  0
    5.1598   -0.5749    0.0000 O   0  0  0  0  0  0  0  0  0  0  0  0
    3.8609   -2.8249    0.0000 C   0  0  0  0  0  0  0  0  0  0  0  0
    3.8609   -4.3249    0.0000 O   0  0  0  0  0  0  0  0  0  0  0  0
    2.5617   -2.0749    0.0000 C   0  0  0  0  0  0  0  0  0  0  0  0
    2.5617   -0.5749    0.0000 O   0  0  0  0  0  0  0  0  0  0  0  0
    1.2628   -2.8249    0.0000 C   0  0  0  0  0  0  0  0  0  0  0  0
    1.2628   -4.3249    0.0000 O   0  0  0  0  0  0  0  0  0  0  0  0
   -0.0363   -2.0749    0.0000 O   0  0  0  0  0  0  0  0  0  0  0  0
  1  2  1  0  0  0  0
  2  3  1  0  0  0  0
  3  4  1  0  0  0  0
  3  5  1  0  0  0  0
  5  6  1  0  0  0  0
  5  7  1  0  0  0  0
  7  8  1  0  0  0  0
  7  9  1  0  0  0  0
  9 10  1  0  0  0  0
  9 11  1  0  0  0  0
 11 12  1  0  0  0  0
 11 13  1  0  0  0  0
 13 14  2  0  0  0  0
 13 15  1  0  0  0  0
M  END
> <Inchi_key>
KWMLJOLKUYYJFJ-UHFFFAOYSA-N

> <Source>
Mulliner

> <ID>
HT0354

> <H_MFHB>
0

> <CAS>


> <Cholestasis>


> <Name>
calcium gluceptate

> <Class>
0

$$$$