

  -INDIGO-08031710012D

 14 14  0  0  0  0  0  0  0  0999 V2000
   -2.6545    2.7152    0.0000 C   0  0  0  0  0  0  0  0  0  0  0  0
   -2.6208    4.2148    0.0000 C   0  0  0  0  0  0  0  0  0  0  0  0
   -3.9026    4.9939    0.0000 C   0  0  0  0  0  0  0  0  0  0  0  0
   -1.3051    4.9353    0.0000 C   0  0  0  0  0  0  0  0  0  0  0  0
   -0.0233    4.1562    0.0000 C   0  0  0  0  0  0  0  0  0  0  0  0
    0.0996    2.6613    0.0000 N   0  0  0  0  0  0  0  0  0  0  0  0
    1.5596    2.3164    0.0000 C   0  0  0  0  0  0  0  0  0  0  0  0
    2.1387    0.9326    0.0000 S   0  0  0  0  0  0  0  0  0  0  0  0
    2.3387    3.5982    0.0000 N   0  0  0  0  0  0  0  0  0  0  0  0
    3.8336    3.7213    0.0000 C   0  0  0  0  0  0  0  0  0  0  0  0
    4.6877    2.4882    0.0000 C   0  0  0  0  0  0  0  0  0  0  0  0
    6.1826    2.6113    0.0000 C   0  0  0  0  0  0  0  0  0  0  0  0
    1.3604    4.7352    0.0000 C   0  0  0  0  0  0  0  0  0  0  0  0
    1.7053    6.1950    0.0000 S   0  0  0  0  0  0  0  0  0  0  0  0
  1  2  1  0  0  0  0
  2  3  1  0  0  0  0
  2  4  1  0  0  0  0
  4  5  1  0  0  0  0
  6  5  1  0  0  0  0
  5 13  1  0  0  0  0
  7  6  1  0  0  0  0
  7  8  2  0  0  0  0
  9  7  1  0  0  0  0
  9 10  1  0  0  0  0
 13  9  1  0  0  0  0
 10 11  1  0  0  0  0
 11 12  2  0  0  0  0
 13 14  2  0  0  0  0
M  END
> <Inchi_key>
LUHAKXWGTCWFPT-UHFFFAOYSA-N

> <Source>
Mulliner

> <ID>
HT2993

> <H_MFHB>
0

> <CAS>


> <Cholestasis>


> <Name>


> <Class>
0


$$$$