
  -INDIGO-08031710012D

 28 31  0  0  0  0  0  0  0  0999 V2000
    0.4933    1.8526    0.0000 C   0  0  0  0  0  0  0  0  0  0  0  0
    1.7947    1.1068    0.0000 C   0  0  0  0  0  0  0  0  0  0  0  0
    3.1629    1.7214    0.0000 C   0  0  0  0  0  0  0  0  0  0  0  0
    4.1702    0.6099    0.0000 C   0  0  0  0  0  0  0  0  0  0  0  0
    5.6704    0.6148    0.0000 C   0  0  0  0  0  0  0  0  0  0  0  0
    6.4161    1.9163    0.0000 C   0  0  0  0  0  0  0  0  0  0  0  0
    7.9160    1.9212    0.0000 C   0  0  0  0  0  0  0  0  0  0  0  0
    8.6617    3.2227    0.0000 F   0  0  0  0  0  0  0  0  0  0  0  0
    8.6702    0.6246    0.0000 C   0  0  0  0  0  0  0  0  0  0  0  0
   10.1701    0.6295    0.0000 C   0  0  0  0  0  0  0  0  0  0  0  0
   10.9246   -0.6671    0.0000 C   0  0  0  0  0  0  0  0  0  0  0  0
   12.4245   -0.6622    0.0000 O   0  0  0  0  0  0  0  0  0  0  0  0
   10.1787   -1.9686    0.0000 C   0  0  0  0  0  0  0  0  0  0  0  0
    8.6787   -1.9735    0.0000 C   0  0  0  0  0  0  0  0  0  0  0  0
    7.9245   -0.6769    0.0000 C   0  0  0  0  0  0  0  0  0  0  0  0
    7.1786   -1.9784    0.0000 C   0  0  0  0  0  0  0  0  0  0  0  0
    6.4246   -0.6818    0.0000 C   0  0  0  0  0  0  0  0  0  0  0  0
    5.6787   -1.9832    0.0000 C   0  0  0  0  0  0  0  0  0  0  0  0
    6.4329   -3.2798    0.0000 O   0  0  0  0  0  0  0  0  0  0  0  0
    4.1788   -1.9881    0.0000 C   0  0  0  0  0  0  0  0  0  0  0  0
    3.4245   -0.6916    0.0000 C   0  0  0  0  0  0  0  0  0  0  0  0
    2.5683   -1.9231    0.0000 C   0  0  0  0  0  0  0  0  0  0  0  0
    1.9564   -0.3845    0.0000 C   0  0  0  0  0  0  0  0  0  0  0  0
    1.4725   -1.8043    0.0000 O   0  0  0  0  0  0  0  0  0  0  0  0
    0.4754   -0.6240    0.0000 C   0  0  0  0  0  0  0  0  0  0  0  0
   -0.4723    0.5387    0.0000 O   0  0  0  0  0  0  0  0  0  0  0  0
   -0.0575   -2.0261    0.0000 C   0  0  0  0  0  0  0  0  0  0  0  0
   -1.5382   -2.2656    0.0000 O   0  0  0  0  0  0  0  0  0  0  0  0
  1  2  1  0  0  0  0
  3  2  1  0  0  0  0
  2 23  1  0  0  0  0
  4  3  1  0  0  0  0
  5  4  1  0  0  0  0
  4 21  1  0  0  0  0
  6  5  1  0  0  0  0
  5 17  1  0  0  0  0
  7  6  1  0  0  0  0
  7  8  1  0  0  0  0
  9  7  1  0  0  0  0
 10  9  2  0  0  0  0
  9 15  1  0  0  0  0
 11 10  1  0  0  0  0
 11 12  2  0  0  0  0
 13 11  1  0  0  0  0
 14 13  2  0  0  0  0
 15 14  1  0  0  0  0
 15 16  1  0  0  0  0
 17 15  1  0  0  0  0
 18 17  1  0  0  0  0
 18 19  1  0  0  0  0
 20 18  1  0  0  0  0
 21 20  1  0  0  0  0
 21 22  1  0  0  0  0
 23 21  1  0  0  0  0
 23 24  1  0  0  0  0
 23 25  1  0  0  0  0
 25 26  2  0  0  0  0
 25 27  1  0  0  0  0
 27 28  1  0  0  0  0
M  END
> <Inchi_key>
MKPDWECBUAZOHP-UHFFFAOYSA-N

> <Source>
Mulliner

> <ID>
HT1591

> <H_MFHB>
0

> <CAS>


> <Cholestasis>


> <Name>
paramethasone

> <Class>
0

$$$$