
  -INDIGO-08031710012D

 45 47  0  0  0  0  0  0  0  0999 V2000
   -0.9078   11.2744    0.0000 C   0  0  0  0  0  0  0  0  0  0  0  0
   -0.9078    9.7744    0.0000 O   0  0  0  0  0  0  0  0  0  0  0  0
    0.3912    9.0244    0.0000 C   0  0  0  0  0  0  0  0  0  0  0  0
    0.3912    7.5245    0.0000 C   0  0  0  0  0  0  0  0  0  0  0  0
    1.6903    6.7745    0.0000 O   0  0  0  0  0  0  0  0  0  0  0  0
    1.6903    5.2743    0.0000 C   0  0  0  0  0  0  0  0  0  0  0  0
    2.9893    4.5243    0.0000 O   0  0  0  0  0  0  0  0  0  0  0  0
    4.2883    5.2743    0.0000 C   0  0  0  0  0  0  0  0  0  0  0  0
    5.5876    4.5243    0.0000 C   0  0  0  0  0  0  0  0  0  0  0  0
    5.5876    3.0244    0.0000 C   0  0  0  0  0  0  0  0  0  0  0  0
    4.2883    2.2744    0.0000 O   0  0  0  0  0  0  0  0  0  0  0  0
    4.2883    0.7744    0.0000 C   0  0  0  0  0  0  0  0  0  0  0  0
    6.8866    5.2743    0.0000 O   0  0  0  0  0  0  0  0  0  0  0  0
    6.8866    6.7745    0.0000 C   0  0  0  0  0  0  0  0  0  0  0  0
    8.1856    7.5245    0.0000 O   0  0  0  0  0  0  0  0  0  0  0  0
    9.4846    6.7745    0.0000 C   0  0  0  0  0  0  0  0  0  0  0  0
   10.7837    7.5245    0.0000 C   0  0  0  0  0  0  0  0  0  0  0  0
   10.7837    9.0244    0.0000 C   0  0  0  0  0  0  0  0  0  0  0  0
   12.0827    9.7744    0.0000 O   0  0  0  0  0  0  0  0  0  0  0  0
   12.0827   11.2744    0.0000 C   0  0  0  0  0  0  0  0  0  0  0  0
   12.0827    6.7745    0.0000 O   0  0  0  0  0  0  0  0  0  0  0  0
   12.0827    5.2743    0.0000 C   0  0  0  0  0  0  0  0  0  0  0  0
   13.3817    4.5243    0.0000 O   0  0  0  0  0  0  0  0  0  0  0  0
   14.6807    5.2743    0.0000 C   0  0  0  0  0  0  0  0  0  0  0  0
   10.7837    4.5243    0.0000 C   0  0  0  0  0  0  0  0  0  0  0  0
   10.7837    3.0244    0.0000 O   0  0  0  0  0  0  0  0  0  0  0  0
   12.0827    2.2744    0.0000 C   0  0  0  0  0  0  0  0  0  0  0  0
    9.4846    5.2743    0.0000 C   0  0  0  0  0  0  0  0  0  0  0  0
    8.1856    4.5243    0.0000 O   0  0  0  0  0  0  0  0  0  0  0  0
    8.1856    3.0244    0.0000 C   0  0  0  0  0  0  0  0  0  0  0  0
    5.5876    7.5245    0.0000 C   0  0  0  0  0  0  0  0  0  0  0  0
    5.5876    9.0244    0.0000 O   0  0  0  0  0  0  0  0  0  0  0  0
    6.8866    9.7744    0.0000 C   0  0  0  0  0  0  0  0  0  0  0  0
    4.2883    6.7745    0.0000 C   0  0  0  0  0  0  0  0  0  0  0  0
    2.9893    7.5245    0.0000 O   0  0  0  0  0  0  0  0  0  0  0  0
    2.9893    9.0244    0.0000 C   0  0  0  0  0  0  0  0  0  0  0  0
    0.3912    4.5243    0.0000 C   0  0  0  0  0  0  0  0  0  0  0  0
    0.3912    3.0244    0.0000 O   0  0  0  0  0  0  0  0  0  0  0  0
   -0.9078    2.2744    0.0000 C   0  0  0  0  0  0  0  0  0  0  0  0
   -0.9078    5.2743    0.0000 C   0  0  0  0  0  0  0  0  0  0  0  0
   -2.2068    4.5243    0.0000 O   0  0  0  0  0  0  0  0  0  0  0  0
   -3.5058    5.2743    0.0000 C   0  0  0  0  0  0  0  0  0  0  0  0
   -0.9078    6.7745    0.0000 C   0  0  0  0  0  0  0  0  0  0  0  0
   -2.2068    7.5245    0.0000 O   0  0  0  0  0  0  0  0  0  0  0  0
   -3.5058    6.7745    0.0000 C   0  0  0  0  0  0  0  0  0  0  0  0
  1  2  1  0  0  0  0
  2  3  1  0  0  0  0
  3  4  1  0  0  0  0
  5  4  1  0  0  0  0
  4 43  1  0  0  0  0
  6  5  1  0  0  0  0
  6  7  1  0  0  0  0
 37  6  1  0  0  0  0
  7  8  1  0  0  0  0
  9  8  1  0  0  0  0
  8 34  1  0  0  0  0
  9 10  1  0  0  0  0
 13  9  1  0  0  0  0
 10 11  1  0  0  0  0
 11 12  1  0  0  0  0
 14 13  1  0  0  0  0
 14 15  1  0  0  0  0
 31 14  1  0  0  0  0
 15 16  1  0  0  0  0
 17 16  1  0  0  0  0
 16 28  1  0  0  0  0
 17 18  1  0  0  0  0
 21 17  1  0  0  0  0
 18 19  1  0  0  0  0
 19 20  1  0  0  0  0
 22 21  1  0  0  0  0
 22 23  1  0  0  0  0
 25 22  1  0  0  0  0
 23 24  1  0  0  0  0
 25 26  1  0  0  0  0
 28 25  1  0  0  0  0
 26 27  1  0  0  0  0
 28 29  1  0  0  0  0
 29 30  1  0  0  0  0
 31 32  1  0  0  0  0
 34 31  1  0  0  0  0
 32 33  1  0  0  0  0
 34 35  1  0  0  0  0
 35 36  1  0  0  0  0
 37 38  1  0  0  0  0
 40 37  1  0  0  0  0
 38 39  1  0  0  0  0
 40 41  1  0  0  0  0
 43 40  1  0  0  0  0
 41 42  1  0  0  0  0
 43 44  1  0  0  0  0
 44 45  1  0  0  0  0
M  END
> <Inchi_key>
LNAZSHAWQACDHT-UHFFFAOYSA-N

> <Source>
Mulliner

> <ID>
HT1360

> <H_MFHB>
0

> <CAS>


> <Cholestasis>


> <Name>
methylcellulose

> <Class>
0

$$$$