

  -INDIGO-08031710012D

 20 23  0  0  0  0  0  0  0  0999 V2000
   10.9075   -2.9086    0.0000 C   0  0  0  0  0  0  0  0  0  0  0  0
    9.6067   -2.1617    0.0000 O   0  0  0  0  0  0  0  0  0  0  0  0
    8.3093   -2.9148    0.0000 C   0  0  0  0  0  0  0  0  0  0  0  0
    8.3130   -4.4148    0.0000 C   0  0  0  0  0  0  0  0  0  0  0  0
    7.0158   -5.1680    0.0000 C   0  0  0  0  0  0  0  0  0  0  0  0
    5.7074   -4.3898    0.0000 C   0  0  0  0  0  0  0  0  0  0  0  0
    4.4475   -5.1330    0.0000 C   0  0  0  0  0  0  0  0  0  0  0  0
    3.1804   -4.3460    0.0000 C   0  0  0  0  0  0  0  0  0  0  0  0
    3.1670   -2.9251    0.0000 C   0  0  0  0  0  0  0  0  0  0  0  0
    1.8964   -2.1926    0.0000 C   0  0  0  0  0  0  0  0  0  0  0  0
    1.8890   -0.7178    0.0000 C   0  0  0  0  0  0  0  0  0  0  0  0
    3.1689    0.0134    0.0000 C   0  0  0  0  0  0  0  0  0  0  0  0
    4.4397   -0.7191    0.0000 C   0  0  0  0  0  0  0  0  0  0  0  0
    4.4483   -2.1931    0.0000 C   0  0  0  0  0  0  0  0  0  0  0  0
    4.4495   -3.6357    0.0000 C   0  0  0  0  0  0  0  0  0  0  0  0
    3.5238   -5.2943    0.0000 C   0  0  0  0  0  0  0  0  0  0  0  0
    1.9450   -5.0509    0.0000 N   0  0  0  0  0  0  0  0  0  0  0  0
    0.4698   -5.3227    0.0000 C   0  0  0  0  0  0  0  0  0  0  0  0
    5.7192   -2.9256    0.0000 C   0  0  0  0  0  0  0  0  0  0  0  0
    7.0086   -2.1680    0.0000 C   0  0  0  0  0  0  0  0  0  0  0  0
  1  2  1  0  0  0  0
  2  3  1  0  0  0  0
  4  3  2  0  0  0  0
  3 20  1  0  0  0  0
  5  4  1  0  0  0  0
  6  5  2  0  0  0  0
  7  6  1  0  0  0  0
  6 19  1  0  0  0  0
  8  7  1  0  0  0  0
  8  9  1  0  0  0  0
 17  8  1  0  0  0  0
  9 10  1  0  0  0  0
  9 14  1  0  0  0  0
 10 11  1  0  0  0  0
 11 12  1  0  0  0  0
 12 13  1  0  0  0  0
 13 14  1  0  0  0  0
 14 15  1  0  0  0  0
 19 14  1  0  0  0  0
 15 16  1  0  0  0  0
 16 17  1  0  0  0  0
 17 18  1  0  0  0  0
 20 19  2  0  0  0  0
M  END
> <Inchi_key>
MKXZASYAUGDDCJ-UHFFFAOYSA-N

> <Source>
Mulliner

> <ID>
HT0628

> <H_MFHB>
0

> <CAS>


> <Cholestasis>


> <Name>
dextromethorphan hydrobromide;dextromethorphan polistirex;dextromethorphan

> <Class>
0


$$$$