

  -INDIGO-08031710012D

 35 36  0  0  0  0  0  0  0  0999 V2000
  -13.1351   13.1202    0.0000 C   0  0  0  0  0  0  0  0  0  0  0  0
  -13.8850   11.8211    0.0000 C   0  0  0  0  0  0  0  0  0  0  0  0
  -15.3849   11.8211    0.0000 O   0  0  0  0  0  0  0  0  0  0  0  0
  -13.1351   10.5221    0.0000 C   0  0  0  0  0  0  0  0  0  0  0  0
  -13.8850    9.2230    0.0000 C   0  0  0  0  0  0  0  0  0  0  0  0
  -11.6348   10.5221    0.0000 C   0  0  0  0  0  0  0  0  0  0  0  0
  -10.3358   11.2721    0.0000 O   0  0  0  0  0  0  0  0  0  0  0  0
  -10.3358    9.7722    0.0000 C   0  0  0  0  0  0  0  0  0  0  0  0
   -9.5859    8.4731    0.0000 C   0  0  0  0  0  0  0  0  0  0  0  0
   -8.0860    8.4731    0.0000 C   0  0  0  0  0  0  0  0  0  0  0  0
   -7.3361    9.7722    0.0000 C   0  0  0  0  0  0  0  0  0  0  0  0
   -5.8358    9.7722    0.0000 O   0  0  0  0  0  0  0  0  0  0  0  0
   -5.0858    8.4731    0.0000 C   0  0  0  0  0  0  0  0  0  0  0  0
   -3.5859    8.4731    0.0000 C   0  0  0  0  0  0  0  0  0  0  0  0
   -2.8360    9.7722    0.0000 C   0  0  0  0  0  0  0  0  0  0  0  0
   -1.3361    9.7722    0.0000 C   0  0  0  0  0  0  0  0  0  0  0  0
   -0.5857    8.4731    0.0000 C   0  0  0  0  0  0  0  0  0  0  0  0
   -1.3361    7.1741    0.0000 O   0  0  0  0  0  0  0  0  0  0  0  0
    0.9141    8.4731    0.0000 O   0  0  0  0  0  0  0  0  0  0  0  0
    1.6641    9.7722    0.0000 C   0  0  0  0  0  0  0  0  0  0  0  0
    3.1640    9.7722    0.0000 C   0  0  0  0  0  0  0  0  0  0  0  0
    3.9139   11.0712    0.0000 C   0  0  0  0  0  0  0  0  0  0  0  0
    5.4142   11.0712    0.0000 C   0  0  0  0  0  0  0  0  0  0  0  0
    6.1641   12.3701    0.0000 C   0  0  0  0  0  0  0  0  0  0  0  0
    7.6640   12.3701    0.0000 C   0  0  0  0  0  0  0  0  0  0  0  0
    8.4140   13.6692    0.0000 C   0  0  0  0  0  0  0  0  0  0  0  0
    9.9143   13.6692    0.0000 C   0  0  0  0  0  0  0  0  0  0  0  0
   10.6642   14.9682    0.0000 C   0  0  0  0  0  0  0  0  0  0  0  0
    9.9143   16.2673    0.0000 O   0  0  0  0  0  0  0  0  0  0  0  0
   12.1641   14.9682    0.0000 O   0  0  0  0  0  0  0  0  0  0  0  0
   -3.5859   11.0712    0.0000 C   0  0  0  0  0  0  0  0  0  0  0  0
   -5.8358    7.1741    0.0000 C   0  0  0  0  0  0  0  0  0  0  0  0
   -5.0858    5.8750    0.0000 O   0  0  0  0  0  0  0  0  0  0  0  0
   -7.3361    7.1741    0.0000 C   0  0  0  0  0  0  0  0  0  0  0  0
   -8.0860    5.8750    0.0000 O   0  0  0  0  0  0  0  0  0  0  0  0
  1  2  1  0  0  0  0
  2  3  1  0  0  0  0
  2  4  1  0  0  0  0
  4  5  1  0  0  0  0
  4  6  1  0  0  0  0
  7  6  1  0  0  0  0
  6  8  1  0  0  0  0
  8  7  1  0  0  0  0
  8  9  1  0  0  0  0
  9 10  1  0  0  0  0
 11 10  1  0  0  0  0
 10 34  1  0  0  0  0
 12 11  1  0  0  0  0
 13 12  1  0  0  0  0
 13 14  1  0  0  0  0
 32 13  1  0  0  0  0
 14 15  1  0  0  0  0
 15 16  2  0  0  0  0
 15 31  1  0  0  0  0
 16 17  1  0  0  0  0
 17 18  2  0  0  0  0
 17 19  1  0  0  0  0
 19 20  1  0  0  0  0
 20 21  1  0  0  0  0
 21 22  1  0  0  0  0
 22 23  1  0  0  0  0
 23 24  1  0  0  0  0
 24 25  1  0  0  0  0
 25 26  1  0  0  0  0
 26 27  1  0  0  0  0
 27 28  1  0  0  0  0
 28 29  2  0  0  0  0
 28 30  1  0  0  0  0
 32 33  1  0  0  0  0
 34 32  1  0  0  0  0
 34 35  1  0  0  0  0
M  END
> <Inchi_key>
MINDHVHHQZYEEK-SSZFMOIBSA-N, MINDHVHHQZYEEK-DTQAZKPQSA-N

> <Source>
Mulliner,  Kotsampasakou

> <ID>
EK0363;HT1441

> <H_MFHB>
0

> <CAS>


> <Cholestasis>
0

> <Name>
mupirocin

> <Class>
0


$$$$