
  -INDIGO-08031710012D

 17 18  0  0  0  0  0  0  0  0999 V2000
    8.3485    1.5746    0.0000 C   0  0  0  0  0  0  0  0  0  0  0  0
    6.8504    1.4969    0.0000 C   0  0  0  0  0  0  0  0  0  0  0  0
    6.1686    0.1608    0.0000 N   0  0  0  0  0  0  0  0  0  0  0  0
    6.9849   -1.0977    0.0000 C   0  0  0  0  0  0  0  0  0  0  0  0
    8.4829   -1.0200    0.0000 C   0  0  0  0  0  0  0  0  0  0  0  0
    4.6706    0.0832    0.0000 C   0  0  0  0  0  0  0  0  0  0  0  0
    3.9888   -1.2530    0.0000 O   0  0  0  0  0  0  0  0  0  0  0  0
    3.8544    1.3416    0.0000 C   0  0  0  0  0  0  0  0  0  0  0  0
    4.7047    2.5773    0.0000 C   0  0  0  0  0  0  0  0  0  0  0  0
    3.2093    2.6959    0.0000 C   0  0  0  0  0  0  0  0  0  0  0  0
    1.9736    3.5462    0.0000 C   0  0  0  0  0  0  0  0  0  0  0  0
    2.0922    5.0415    0.0000 N   0  0  0  0  0  0  0  0  0  0  0  0
    2.8501    0.2275    0.0000 C   0  0  0  0  0  0  0  0  0  0  0  0
    1.3584    0.3850    0.0000 C   0  0  0  0  0  0  0  0  0  0  0  0
    0.7475   -0.9849    0.0000 C   0  0  0  0  0  0  0  0  0  0  0  0
    1.8616   -1.9892    0.0000 C   0  0  0  0  0  0  0  0  0  0  0  0
    3.1611   -1.2399    0.0000 S   0  0  0  0  0  0  0  0  0  0  0  0
  1  2  1  0  0  0  0
  2  3  1  0  0  0  0
  3  4  1  0  0  0  0
  3  6  1  0  0  0  0
  4  5  1  0  0  0  0
  6  7  2  0  0  0  0
  6  8  1  0  0  0  0
  9  8  1  0  0  0  0
  8 10  1  0  0  0  0
  8 13  1  0  0  0  0
 10  9  1  0  0  0  0
 10 11  1  0  0  0  0
 11 12  1  0  0  0  0
 14 13  2  0  0  0  0
 13 17  1  0  0  0  0
 15 14  1  0  0  0  0
 16 15  2  0  0  0  0
 17 16  1  0  0  0  0
M  END
> <Inchi_key>
LRXREOMAEUNNPU-UHFFFAOYSA-N

> <Source>
Mulliner

> <ID>
HT1401

> <H_MFHB>
0

> <CAS>


> <Cholestasis>


> <Name>
milnacipran hydrochloride

> <Class>
0

$$$$