
  -INDIGO-08031710012D

 22 24  0  0  0  0  0  0  0  0999 V2000
    2.7730    1.0747    0.0000 C   0  0  0  0  0  0  0  0  0  0  0  0
    1.6648    0.0639    0.0000 C   0  0  0  0  0  0  0  0  0  0  0  0
    0.1956    0.3663    0.0000 O   0  0  0  0  0  0  0  0  0  0  0  0
   -0.5460   -0.9375    0.0000 N   0  0  0  0  0  0  0  0  0  0  0  0
    0.4649   -2.0458    0.0000 C   0  0  0  0  0  0  0  0  0  0  0  0
    0.1625   -3.5150    0.0000 C   0  0  0  0  0  0  0  0  0  0  0  0
   -1.2612   -3.9876    0.0000 C   0  0  0  0  0  0  0  0  0  0  0  0
   -1.5636   -5.4568    0.0000 C   0  0  0  0  0  0  0  0  0  0  0  0
   -0.4425   -6.4534    0.0000 C   0  0  0  0  0  0  0  0  0  0  0  0
    0.9812   -5.9807    0.0000 C   0  0  0  0  0  0  0  0  0  0  0  0
    1.2836   -4.5115    0.0000 C   0  0  0  0  0  0  0  0  0  0  0  0
    1.8312   -1.4269    0.0000 C   0  0  0  0  0  0  0  0  0  0  0  0
    3.1350   -2.1685    0.0000 C   0  0  0  0  0  0  0  0  0  0  0  0
    3.1447   -3.6685    0.0000 C   0  0  0  0  0  0  0  0  0  0  0  0
    4.4484   -4.4101    0.0000 C   0  0  0  0  0  0  0  0  0  0  0  0
    5.7427   -3.6518    0.0000 C   0  0  0  0  0  0  0  0  0  0  0  0
    5.7331   -2.1518    0.0000 C   0  0  0  0  0  0  0  0  0  0  0  0
    4.4292   -1.4102    0.0000 C   0  0  0  0  0  0  0  0  0  0  0  0
    7.0464   -4.3934    0.0000 S   0  0  0  0  0  0  0  0  0  0  0  0
    7.7882   -3.0896    0.0000 O   0  0  0  0  0  0  0  0  0  0  0  0
    6.3049   -5.6972    0.0000 O   0  0  0  0  0  0  0  0  0  0  0  0
    8.3503   -5.1351    0.0000 N   0  0  0  0  0  0  0  0  0  0  0  0
  1  2  1  0  0  0  0
  3  2  1  0  0  0  0
  2 12  2  0  0  0  0
  4  3  1  0  0  0  0
  5  4  2  0  0  0  0
  5  6  1  0  0  0  0
 12  5  1  0  0  0  0
  7  6  2  0  0  0  0
  6 11  1  0  0  0  0
  8  7  1  0  0  0  0
  9  8  2  0  0  0  0
 10  9  1  0  0  0  0
 11 10  2  0  0  0  0
 12 13  1  0  0  0  0
 14 13  2  0  0  0  0
 13 18  1  0  0  0  0
 15 14  1  0  0  0  0
 16 15  2  0  0  0  0
 17 16  1  0  0  0  0
 16 19  1  0  0  0  0
 18 17  2  0  0  0  0
 19 20  2  0  0  0  0
 19 21  2  0  0  0  0
 19 22  1  0  0  0  0
M  END
> <Inchi_key>
LNPDTQAFDNKSHK-UHFFFAOYSA-N

> <Source>
Mulliner

> <ID>
HT2161

> <H_MFHB>
0

> <CAS>


> <Cholestasis>


> <Name>
valdecoxib

> <Class>
0

$$$$