
  -INDIGO-08031710012D

 13 12  0  0  0  0  0  0  0  0999 V2000
   10.2422   -2.7444    0.0000 C   0  0  0  0  0  0  0  0  0  0  0  0
    8.9431   -1.9944    0.0000 N   0  0  0  0  0  0  0  0  0  0  0  0
    7.6441   -2.7444    0.0000 C   0  0  0  0  0  0  0  0  0  0  0  0
    6.3450   -1.9944    0.0000 C   0  0  0  0  0  0  0  0  0  0  0  0
    6.3450   -0.4944    0.0000 O   0  0  0  0  0  0  0  0  0  0  0  0
    5.0460   -2.7444    0.0000 C   0  0  0  0  0  0  0  0  0  0  0  0
    5.0460   -4.2444    0.0000 O   0  0  0  0  0  0  0  0  0  0  0  0
    3.7471   -1.9944    0.0000 C   0  0  0  0  0  0  0  0  0  0  0  0
    3.7471   -0.4944    0.0000 O   0  0  0  0  0  0  0  0  0  0  0  0
    2.4479   -2.7444    0.0000 C   0  0  0  0  0  0  0  0  0  0  0  0
    2.4479   -4.2444    0.0000 O   0  0  0  0  0  0  0  0  0  0  0  0
    1.1490   -1.9944    0.0000 C   0  0  0  0  0  0  0  0  0  0  0  0
   -0.1501   -2.7444    0.0000 O   0  0  0  0  0  0  0  0  0  0  0  0
  1  2  1  0  0  0  0
  2  3  1  0  0  0  0
  3  4  1  0  0  0  0
  4  5  1  0  0  0  0
  4  6  1  0  0  0  0
  6  7  1  0  0  0  0
  6  8  1  0  0  0  0
  8  9  1  0  0  0  0
  8 10  1  0  0  0  0
 10 11  1  0  0  0  0
 10 12  1  0  0  0  0
 12 13  1  0  0  0  0
M  END
> <Inchi_key>
MBBZMMPHUWSWHV-UHFFFAOYSA-N

> <Source>
Mulliner

> <ID>
HT1292

> <H_MFHB>
0

> <CAS>


> <Cholestasis>


> <Name>
meglumine antimonate;n-methylglucamine

> <Class>
0

$$$$