
  -INDIGO-08031710012D

  7  7  0  0  0  0  0  0  0  0999 V2000
    0.6527   -2.0088    0.0000 C   0  0  0  0  0  0  0  0  0  0  0  0
    1.8662   -1.1272    0.0000 N   0  0  0  0  0  0  0  0  0  0  0  0
    3.2928   -1.5907    0.0000 S   0  0  0  0  0  0  0  0  0  0  0  0
    4.1745   -0.3772    0.0000 C   0  0  0  0  0  0  0  0  0  0  0  0
    3.2928    0.8364    0.0000 C   0  0  0  0  0  0  0  0  0  0  0  0
    1.8662    0.3728    0.0000 C   0  0  0  0  0  0  0  0  0  0  0  0
    0.6527    1.2545    0.0000 O   0  0  0  0  0  0  0  0  0  0  0  0
  1  2  1  0  0  0  0
  3  2  1  0  0  0  0
  2  6  1  0  0  0  0
  4  3  1  0  0  0  0
  5  4  2  0  0  0  0
  6  5  1  0  0  0  0
  6  7  2  0  0  0  0
M  END
> <Inchi_key>
BEGLCMHJXHIJLR-UHFFFAOYSA-N

> <Source>
Mulliner

> <ID>
HT2470

> <H_MFHB>
0

> <CAS>


> <Cholestasis>


> <Name>


> <Class>
0

$$$$