
  -INDIGO-08031710012D

 29 32  0  0  0  0  0  0  0  0999 V2000
    7.5152   -1.0632    0.0000 S   0  0  0  0  0  0  0  0  0  0  0  0
    7.5152   -2.5632    0.0000 O   0  0  0  0  0  0  0  0  0  0  0  0
    6.2160   -0.3132    0.0000 C   0  0  0  0  0  0  0  0  0  0  0  0
    8.8143   -0.3132    0.0000 C   0  0  0  0  0  0  0  0  0  0  0  0
   10.1132   -1.0632    0.0000 C   0  0  0  0  0  0  0  0  0  0  0  0
    8.8143    1.1868    0.0000 C   0  0  0  0  0  0  0  0  0  0  0  0
   11.4123   -0.3132    0.0000 C   0  0  0  0  0  0  0  0  0  0  0  0
   10.1132    1.9368    0.0000 C   0  0  0  0  0  0  0  0  0  0  0  0
   11.4123    1.1868    0.0000 C   0  0  0  0  0  0  0  0  0  0  0  0
    4.9171   -1.0632    0.0000 C   0  0  0  0  0  0  0  0  0  0  0  0
    3.6180   -0.3132    0.0000 C   0  0  0  0  0  0  0  0  0  0  0  0
    2.2476   -0.9233    0.0000 C   0  0  0  0  0  0  0  0  0  0  0  0
    3.4612    1.1786    0.0000 C   0  0  0  0  0  0  0  0  0  0  0  0
    1.9357   -2.3907    0.0000 O   0  0  0  0  0  0  0  0  0  0  0  0
    1.2439    0.1913    0.0000 N   0  0  0  0  0  0  0  0  0  0  0  0
    4.5759    2.1822    0.0000 O   0  0  0  0  0  0  0  0  0  0  0  0
    1.9940    1.4904    0.0000 N   0  0  0  0  0  0  0  0  0  0  0  0
   -0.2478    0.0346    0.0000 C   0  0  0  0  0  0  0  0  0  0  0  0
    1.3840    2.8607    0.0000 C   0  0  0  0  0  0  0  0  0  0  0  0
   -1.1293    1.2481    0.0000 C   0  0  0  0  0  0  0  0  0  0  0  0
   -0.8578   -1.3357    0.0000 C   0  0  0  0  0  0  0  0  0  0  0  0
    2.2655    4.0743    0.0000 C   0  0  0  0  0  0  0  0  0  0  0  0
   -0.1080    3.0175    0.0000 C   0  0  0  0  0  0  0  0  0  0  0  0
   -2.6213    1.0913    0.0000 C   0  0  0  0  0  0  0  0  0  0  0  0
   -2.3498   -1.4925    0.0000 C   0  0  0  0  0  0  0  0  0  0  0  0
    1.6555    5.4445    0.0000 C   0  0  0  0  0  0  0  0  0  0  0  0
   -0.7180    4.3878    0.0000 C   0  0  0  0  0  0  0  0  0  0  0  0
   -3.2313   -0.2790    0.0000 C   0  0  0  0  0  0  0  0  0  0  0  0
    0.1638    5.6014    0.0000 C   0  0  0  0  0  0  0  0  0  0  0  0
  1  2  1  0  0  0  0
  1  3  1  0  0  0  0
  1  4  1  0  0  0  0
  5  4  2  0  0  0  0
  4  6  1  0  0  0  0
  7  5  1  0  0  0  0
  6  8  2  0  0  0  0
  9  7  2  0  0  0  0
  8  9  1  0  0  0  0
  3 10  1  0  0  0  0
 10 11  1  0  0  0  0
 12 11  1  0  0  0  0
 11 13  1  0  0  0  0
 12 14  2  0  0  0  0
 15 12  1  0  0  0  0
 13 16  2  0  0  0  0
 13 17  1  0  0  0  0
 17 15  1  0  0  0  0
 15 18  1  0  0  0  0
 17 19  1  0  0  0  0
 20 18  2  0  0  0  0
 18 21  1  0  0  0  0
 22 19  2  0  0  0  0
 19 23  1  0  0  0  0
 24 20  1  0  0  0  0
 21 25  2  0  0  0  0
 26 22  1  0  0  0  0
 23 27  2  0  0  0  0
 28 24  2  0  0  0  0
 25 28  1  0  0  0  0
 29 26  2  0  0  0  0
 27 29  1  0  0  0  0
M  CHG  2   1   1   2  -1
M  END
> <Inchi_key>
MBGGBVCUIVRRBF-UHFFFAOYSA-N

> <Source>
Mulliner

> <ID>
HT1954

> <H_MFHB>
0

> <CAS>


> <Cholestasis>


> <Name>
sulfinpyrazone

> <Class>
0

$$$$