
  -INDIGO-08031710012D

 23 24  0  0  0  0  0  0  0  0999 V2000
   14.8696   -0.0000    0.0000 O   0  0  0  0  0  0  0  0  0  0  0  0
   13.3695   -0.0000    0.0000 C   0  0  0  0  0  0  0  0  0  0  0  0
   12.6197   -1.2990    0.0000 O   0  0  0  0  0  0  0  0  0  0  0  0
   12.6197    1.2989    0.0000 C   0  0  0  0  0  0  0  0  0  0  0  0
   11.1196    1.2989    0.0000 O   0  0  0  0  0  0  0  0  0  0  0  0
   10.3696    2.5982    0.0000 C   0  0  0  0  0  0  0  0  0  0  0  0
   11.1196    3.8971    0.0000 O   0  0  0  0  0  0  0  0  0  0  0  0
    8.8695    2.5982    0.0000 C   0  0  0  0  0  0  0  0  0  0  0  0
    8.1197    3.8971    0.0000 C   0  0  0  0  0  0  0  0  0  0  0  0
    8.8695    5.1962    0.0000 C   0  0  0  0  0  0  0  0  0  0  0  0
    8.1197    6.4952    0.0000 C   0  0  0  0  0  0  0  0  0  0  0  0
    6.6196    6.4952    0.0000 C   0  0  0  0  0  0  0  0  0  0  0  0
    5.8696    5.1962    0.0000 C   0  0  0  0  0  0  0  0  0  0  0  0
    6.6196    3.8971    0.0000 C   0  0  0  0  0  0  0  0  0  0  0  0
    5.8696    2.5982    0.0000 N   0  0  0  0  0  0  0  0  0  0  0  0
    4.3695    2.5982    0.0000 C   0  0  0  0  0  0  0  0  0  0  0  0
    3.6197    1.2989    0.0000 C   0  0  0  0  0  0  0  0  0  0  0  0
    4.3695   -0.0000    0.0000 Cl  0  0  0  0  0  0  0  0  0  0  0  0
    2.1196    1.2989    0.0000 C   0  0  0  0  0  0  0  0  0  0  0  0
    1.3696    2.5982    0.0000 C   0  0  0  0  0  0  0  0  0  0  0  0
    2.1196    3.8971    0.0000 C   0  0  0  0  0  0  0  0  0  0  0  0
    3.6197    3.8971    0.0000 C   0  0  0  0  0  0  0  0  0  0  0  0
    4.3695    5.1962    0.0000 Cl  0  0  0  0  0  0  0  0  0  0  0  0
  1  2  1  0  0  0  0
  2  3  2  0  0  0  0
  2  4  1  0  0  0  0
  4  5  1  0  0  0  0
  5  6  1  0  0  0  0
  6  7  2  0  0  0  0
  6  8  1  0  0  0  0
  8  9  1  0  0  0  0
 10  9  2  0  0  0  0
  9 14  1  0  0  0  0
 11 10  1  0  0  0  0
 12 11  2  0  0  0  0
 13 12  1  0  0  0  0
 14 13  2  0  0  0  0
 14 15  1  0  0  0  0
 15 16  1  0  0  0  0
 17 16  2  0  0  0  0
 16 22  1  0  0  0  0
 17 18  1  0  0  0  0
 19 17  1  0  0  0  0
 20 19  2  0  0  0  0
 21 20  1  0  0  0  0
 22 21  2  0  0  0  0
 22 23  1  0  0  0  0
M  END
> <Inchi_key>
MNIPYSSQXLZQLJ-UHFFFAOYSA-N

> <Source>
Mulliner

> <ID>
HT0048

> <H_MFHB>
0

> <CAS>
89796-99-6

> <Cholestasis>


> <Name>
aceclofenac

> <Class>
0

$$$$