

  -INDIGO-08031709442D

 35 36  0  0  0  0  0  0  0  0999 V2000
   17.5802    9.0520    0.0000 F   0  0  0  0  0  0  0  0  0  0  0  0
   16.2843    9.8077    0.0000 C   0  0  0  0  0  0  0  0  0  0  0  0
   14.9887   10.5631    0.0000 F   0  0  0  0  0  0  0  0  0  0  0  0
   17.0402   11.1033    0.0000 F   0  0  0  0  0  0  0  0  0  0  0  0
   15.5288    8.5118    0.0000 C   0  0  0  0  0  0  0  0  0  0  0  0
   14.0287    8.5183    0.0000 C   0  0  0  0  0  0  0  0  0  0  0  0
   13.2731    7.2224    0.0000 C   0  0  0  0  0  0  0  0  0  0  0  0
   11.7731    7.2291    0.0000 O   0  0  0  0  0  0  0  0  0  0  0  0
   11.0175    5.9332    0.0000 C   0  0  0  0  0  0  0  0  0  0  0  0
    9.5178    5.9397    0.0000 C   0  0  0  0  0  0  0  0  0  0  0  0
    8.7733    7.2420    0.0000 O   0  0  0  0  0  0  0  0  0  0  0  0
    8.7619    4.6438    0.0000 C   0  0  0  0  0  0  0  0  0  0  0  0
    7.2621    4.6505    0.0000 C   0  0  0  0  0  0  0  0  0  0  0  0
    6.5063    3.3546    0.0000 C   0  0  0  0  0  0  0  0  0  0  0  0
    5.0141    3.2042    0.0000 C   0  0  0  0  0  0  0  0  0  0  0  0
    4.0150    4.3233    0.0000 C   0  0  0  0  0  0  0  0  0  0  0  0
    2.5467    4.0177    0.0000 C   0  0  0  0  0  0  0  0  0  0  0  0
    1.5476    5.1368    0.0000 C   0  0  0  0  0  0  0  0  0  0  0  0
    2.0175    6.5615    0.0000 C   0  0  0  0  0  0  0  0  0  0  0  0
    1.0184    7.6806    0.0000 C   0  0  0  0  0  0  0  0  0  0  0  0
    1.4882    9.1050    0.0000 C   0  0  0  0  0  0  0  0  0  0  0  0
    0.4894   10.2241    0.0000 C   0  0  0  0  0  0  0  0  0  0  0  0
    0.9590   11.6488    0.0000 O   0  0  0  0  0  0  0  0  0  0  0  0
   -0.0398   12.7676    0.0000 C   0  0  0  0  0  0  0  0  0  0  0  0
    0.4300   14.1923    0.0000 C   0  0  0  0  0  0  0  0  0  0  0  0
   -1.5084   12.4623    0.0000 C   0  0  0  0  0  0  0  0  0  0  0  0
   -0.9792    9.9185    0.0000 O   0  0  0  0  0  0  0  0  0  0  0  0
    4.6957    1.7385    0.0000 C   0  0  0  0  0  0  0  0  0  0  0  0
    3.3227    1.1344    0.0000 O   0  0  0  0  0  0  0  0  0  0  0  0
    5.9916    0.9828    0.0000 C   0  0  0  0  0  0  0  0  0  0  0  0
    7.1107    1.9818    0.0000 C   0  0  0  0  0  0  0  0  0  0  0  0
    8.5764    1.6635    0.0000 O   0  0  0  0  0  0  0  0  0  0  0  0
   14.0176    5.9203    0.0000 C   0  0  0  0  0  0  0  0  0  0  0  0
   15.5177    5.9139    0.0000 C   0  0  0  0  0  0  0  0  0  0  0  0
   16.2733    7.2095    0.0000 C   0  0  0  0  0  0  0  0  0  0  0  0
  1  2  1  0  0  0  0
  2  3  1  0  0  0  0
  2  4  1  0  0  0  0
  2  5  1  0  0  0  0
  6  5  2  0  0  0  0
  5 35  1  0  0  0  0
  7  6  1  0  0  0  0
  7  8  1  0  0  0  0
 33  7  2  0  0  0  0
  8  9  1  0  0  0  0
  9 10  1  0  0  0  0
 10 11  1  0  0  0  0
 10 12  1  0  0  0  0
 12 13  2  0  0  0  0
 13 14  1  0  0  0  0
 15 14  1  0  0  0  0
 14 31  1  0  0  0  0
 15 16  1  0  0  0  0
 28 15  1  0  0  0  0
 16 17  1  0  0  0  0
 17 18  2  0  0  0  0
 18 19  1  0  0  0  0
 19 20  1  0  0  0  0
 20 21  1  0  0  0  0
 21 22  1  0  0  0  0
 22 23  1  0  0  0  0
 22 27  2  0  0  0  0
 23 24  1  0  0  0  0
 24 25  1  0  0  0  0
 24 26  1  0  0  0  0
 28 29  1  0  0  0  0
 30 28  1  0  0  0  0
 31 30  1  0  0  0  0
 31 32  1  0  0  0  0
 34 33  1  0  0  0  0
 35 34  2  0  0  0  0
M  END
> <Inchi_key>
MKPLKVHSHYCHOC-AGOVQIDJSA-N, MKPLKVHSHYCHOC-VIMBHYQVSA-N

> <Source>
Kotsampasakou,  Mulliner

> <ID>
HT2101;EK0543

> <H_MFHB>
0

> <CAS>


> <Cholestasis>
0

> <Name>
travoprost

> <Class>
0


$$$$