
  -INDIGO-08031710012D

 18 17  0  0  0  0  0  0  0  0999 V2000
   -3.1471    5.4510    0.0000 C   0  0  0  0  0  0  0  0  0  0  0  0
   -2.3972    6.7500    0.0000 N   0  0  0  0  0  0  0  0  0  0  0  0
   -3.6962    7.5000    0.0000 C   0  0  0  0  0  0  0  0  0  0  0  0
   -1.6471    8.0490    0.0000 C   0  0  0  0  0  0  0  0  0  0  0  0
   -1.0982    6.0000    0.0000 C   0  0  0  0  0  0  0  0  0  0  0  0
    0.2011    6.7500    0.0000 C   0  0  0  0  0  0  0  0  0  0  0  0
    1.5001    6.0000    0.0000 C   0  0  0  0  0  0  0  0  0  0  0  0
    2.7991    6.7500    0.0000 C   0  0  0  0  0  0  0  0  0  0  0  0
    4.0981    6.0000    0.0000 C   0  0  0  0  0  0  0  0  0  0  0  0
    5.3971    6.7500    0.0000 C   0  0  0  0  0  0  0  0  0  0  0  0
    6.6963    6.0000    0.0000 C   0  0  0  0  0  0  0  0  0  0  0  0
    7.9953    6.7500    0.0000 C   0  0  0  0  0  0  0  0  0  0  0  0
    9.2943    6.0000    0.0000 C   0  0  0  0  0  0  0  0  0  0  0  0
   10.5933    6.7500    0.0000 C   0  0  0  0  0  0  0  0  0  0  0  0
   11.8923    6.0000    0.0000 N   0  0  0  0  0  0  0  0  0  0  0  0
   11.1422    4.7010    0.0000 C   0  0  0  0  0  0  0  0  0  0  0  0
   12.6424    7.2990    0.0000 C   0  0  0  0  0  0  0  0  0  0  0  0
   13.1913    5.2500    0.0000 C   0  0  0  0  0  0  0  0  0  0  0  0
  1  2  1  0  0  0  0
  2  3  1  0  0  0  0
  2  4  1  0  0  0  0
  2  5  1  0  0  0  0
  5  6  1  0  0  0  0
  6  7  1  0  0  0  0
  7  8  1  0  0  0  0
  8  9  1  0  0  0  0
  9 10  1  0  0  0  0
 10 11  1  0  0  0  0
 11 12  1  0  0  0  0
 12 13  1  0  0  0  0
 13 14  1  0  0  0  0
 14 15  1  0  0  0  0
 15 16  1  0  0  0  0
 15 17  1  0  0  0  0
 15 18  1  0  0  0  0
M  CHG  2   2   1  15   1
M  END
> <Inchi_key>
MTCUAOILFDZKCO-UHFFFAOYSA-N

> <Source>
Mulliner

> <ID>
HT0597

> <H_MFHB>
0

> <CAS>


> <Cholestasis>


> <Name>
decamethonium

> <Class>
0

$$$$