
  -INDIGO-08031710012D

 53 58  0  0  0  0  0  0  0  0999 V2000
   -7.2549   -6.8326    0.0000 C   0  0  0  0  0  0  0  0  0  0  0  0
   -8.4208   -5.8886    0.0000 C   0  0  0  0  0  0  0  0  0  0  0  0
   -8.7068   -7.3611    0.0000 C   0  0  0  0  0  0  0  0  0  0  0  0
   -7.5388   -4.6751    0.0000 C   0  0  0  0  0  0  0  0  0  0  0  0
   -6.0391   -4.6751    0.0000 C   0  0  0  0  0  0  0  0  0  0  0  0
   -5.2890   -3.3762    0.0000 C   0  0  0  0  0  0  0  0  0  0  0  0
   -3.7889   -3.3762    0.0000 C   0  0  0  0  0  0  0  0  0  0  0  0
   -3.0389   -4.6751    0.0000 C   0  0  0  0  0  0  0  0  0  0  0  0
   -1.5388   -4.6751    0.0000 C   0  0  0  0  0  0  0  0  0  0  0  0
   -0.7887   -3.3762    0.0000 C   0  0  0  0  0  0  0  0  0  0  0  0
    0.7110   -3.3762    0.0000 C   0  0  0  0  0  0  0  0  0  0  0  0
    1.4610   -4.6751    0.0000 C   0  0  0  0  0  0  0  0  0  0  0  0
    2.9528   -4.8319    0.0000 N   0  0  0  0  0  0  0  0  0  0  0  0
    3.9566   -3.7172    0.0000 C   0  0  0  0  0  0  0  0  0  0  0  0
    5.4237   -4.0292    0.0000 C   0  0  0  0  0  0  0  0  0  0  0  0
    6.4275   -2.9144    0.0000 C   0  0  0  0  0  0  0  0  0  0  0  0
    7.8946   -3.2262    0.0000 C   0  0  0  0  0  0  0  0  0  0  0  0
    8.8984   -2.1114    0.0000 S   0  0  0  0  0  0  0  0  0  0  0  0
   10.0131   -3.1153    0.0000 O   0  0  0  0  0  0  0  0  0  0  0  0
    7.7836   -1.1078    0.0000 O   0  0  0  0  0  0  0  0  0  0  0  0
    9.9022   -0.9969    0.0000 O   0  0  0  0  0  0  0  0  0  0  0  0
    3.2649   -6.2991    0.0000 C   0  0  0  0  0  0  0  0  0  0  0  0
    4.5638   -7.0491    0.0000 C   0  0  0  0  0  0  0  0  0  0  0  0
    4.5638   -8.5493    0.0000 C   0  0  0  0  0  0  0  0  0  0  0  0
    3.2649   -9.2993    0.0000 C   0  0  0  0  0  0  0  0  0  0  0  0
    3.2649  -10.7992    0.0000 C   0  0  0  0  0  0  0  0  0  0  0  0
    1.9656  -11.5492    0.0000 C   0  0  0  0  0  0  0  0  0  0  0  0
    0.6667  -10.7992    0.0000 C   0  0  0  0  0  0  0  0  0  0  0  0
    0.6667   -9.2993    0.0000 C   0  0  0  0  0  0  0  0  0  0  0  0
    1.9656   -8.5493    0.0000 C   0  0  0  0  0  0  0  0  0  0  0  0
    1.9656   -7.0491    0.0000 C   0  0  0  0  0  0  0  0  0  0  0  0
    0.8509   -6.0455    0.0000 C   0  0  0  0  0  0  0  0  0  0  0  0
   -0.5495   -5.5080    0.0000 C   0  0  0  0  0  0  0  0  0  0  0  0
   -0.2812   -7.0295    0.0000 C   0  0  0  0  0  0  0  0  0  0  0  0
   -8.4208   -3.4616    0.0000 N   0  0  0  0  0  0  0  0  0  0  0  0
   -7.9571   -2.0351    0.0000 C   0  0  0  0  0  0  0  0  0  0  0  0
   -6.4897   -1.7231    0.0000 C   0  0  0  0  0  0  0  0  0  0  0  0
   -6.0264   -0.2966    0.0000 C   0  0  0  0  0  0  0  0  0  0  0  0
   -4.5593    0.0153    0.0000 C   0  0  0  0  0  0  0  0  0  0  0  0
   -4.0956    1.4418    0.0000 S   0  0  0  0  0  0  0  0  0  0  0  0
   -5.5221    1.9053    0.0000 O   0  0  0  0  0  0  0  0  0  0  0  0
   -2.6691    0.9783    0.0000 O   0  0  0  0  0  0  0  0  0  0  0  0
   -3.6320    2.8685    0.0000 O   0  0  0  0  0  0  0  0  0  0  0  0
   -9.8473   -3.9251    0.0000 C   0  0  0  0  0  0  0  0  0  0  0  0
  -11.1462   -3.1751    0.0000 C   0  0  0  0  0  0  0  0  0  0  0  0
  -12.4450   -3.9251    0.0000 C   0  0  0  0  0  0  0  0  0  0  0  0
  -12.4450   -5.4251    0.0000 C   0  0  0  0  0  0  0  0  0  0  0  0
  -13.7443   -6.1750    0.0000 C   0  0  0  0  0  0  0  0  0  0  0  0
  -13.7443   -7.6750    0.0000 C   0  0  0  0  0  0  0  0  0  0  0  0
  -12.4450   -8.4252    0.0000 C   0  0  0  0  0  0  0  0  0  0  0  0
  -11.1462   -7.6750    0.0000 C   0  0  0  0  0  0  0  0  0  0  0  0
  -11.1462   -6.1750    0.0000 C   0  0  0  0  0  0  0  0  0  0  0  0
   -9.8473   -5.4251    0.0000 C   0  0  0  0  0  0  0  0  0  0  0  0
  1  2  1  0  0  0  0
  2  3  1  0  0  0  0
  4  2  1  0  0  0  0
  2 53  1  0  0  0  0
  4  5  2  0  0  0  0
 35  4  1  0  0  0  0
  5  6  1  0  0  0  0
  6  7  2  0  0  0  0
  7  8  1  0  0  0  0
  8  9  2  0  0  0  0
  9 10  1  0  0  0  0
 10 11  2  0  0  0  0
 11 12  1  0  0  0  0
 13 12  2  0  0  0  0
 12 32  1  0  0  0  0
 13 14  1  0  0  0  0
 22 13  1  0  0  0  0
 14 15  1  0  0  0  0
 15 16  1  0  0  0  0
 16 17  1  0  0  0  0
 17 18  1  0  0  0  0
 18 19  2  0  0  0  0
 18 20  2  0  0  0  0
 18 21  1  0  0  0  0
 23 22  1  0  0  0  0
 22 31  2  0  0  0  0
 24 23  2  0  0  0  0
 25 24  1  0  0  0  0
 26 25  1  0  0  0  0
 25 30  2  0  0  0  0
 27 26  2  0  0  0  0
 28 27  1  0  0  0  0
 29 28  2  0  0  0  0
 30 29  1  0  0  0  0
 31 30  1  0  0  0  0
 32 31  1  0  0  0  0
 32 33  1  0  0  0  0
 32 34  1  0  0  0  0
 35 36  1  0  0  0  0
 44 35  1  0  0  0  0
 36 37  1  0  0  0  0
 37 38  1  0  0  0  0
 38 39  1  0  0  0  0
 39 40  1  0  0  0  0
 40 41  2  0  0  0  0
 40 42  2  0  0  0  0
 40 43  1  0  0  0  0
 45 44  2  0  0  0  0
 44 53  1  0  0  0  0
 46 45  1  0  0  0  0
 47 46  2  0  0  0  0
 48 47  1  0  0  0  0
 47 52  1  0  0  0  0
 49 48  2  0  0  0  0
 50 49  1  0  0  0  0
 51 50  2  0  0  0  0
 52 51  1  0  0  0  0
 53 52  2  0  0  0  0
M  CHG  2  13   1  43  -1
M  END
> <Inchi_key>
BDBMLMBYCXNVMC-UHFFFAOYSA-N

> <Source>
Mulliner

> <ID>
HT1095

> <H_MFHB>
0

> <CAS>


> <Cholestasis>


> <Name>
indocyanine green

> <Class>
0

$$$$