

  -INDIGO-08031710012D

 25 26  0  0  0  0  0  0  0  0999 V2000
   -1.1795   -4.7190    0.0000 C   0  0  0  0  0  0  0  0  0  0  0  0
   -1.9296   -3.4200    0.0000 C   0  0  0  0  0  0  0  0  0  0  0  0
   -2.6794   -2.1210    0.0000 C   0  0  0  0  0  0  0  0  0  0  0  0
   -3.2286   -4.1700    0.0000 O   0  0  0  0  0  0  0  0  0  0  0  0
   -4.5276   -3.4200    0.0000 C   0  0  0  0  0  0  0  0  0  0  0  0
   -4.5276   -1.9200    0.0000 C   0  0  0  0  0  0  0  0  0  0  0  0
   -5.8267   -1.1700    0.0000 C   0  0  0  0  0  0  0  0  0  0  0  0
   -7.1257   -1.9200    0.0000 C   0  0  0  0  0  0  0  0  0  0  0  0
   -8.4247   -1.1700    0.0000 Cl  0  0  0  0  0  0  0  0  0  0  0  0
   -7.1257   -3.4200    0.0000 C   0  0  0  0  0  0  0  0  0  0  0  0
   -5.8267   -4.1700    0.0000 C   0  0  0  0  0  0  0  0  0  0  0  0
   -0.6303   -2.6700    0.0000 C   0  0  0  0  0  0  0  0  0  0  0  0
   -0.6303   -1.1700    0.0000 O   0  0  0  0  0  0  0  0  0  0  0  0
    0.6687   -3.4200    0.0000 O   0  0  0  0  0  0  0  0  0  0  0  0
    1.9678   -2.6700    0.0000 C   0  0  0  0  0  0  0  0  0  0  0  0
    3.2668   -3.4200    0.0000 C   0  0  0  0  0  0  0  0  0  0  0  0
    4.5658   -2.6700    0.0000 N   0  0  0  0  0  0  0  0  0  0  0  0
    5.8648   -3.4200    0.0000 C   0  0  0  0  0  0  0  0  0  0  0  0
    5.8648   -4.9200    0.0000 O   0  0  0  0  0  0  0  0  0  0  0  0
    7.1639   -2.6700    0.0000 C   0  0  0  0  0  0  0  0  0  0  0  0
    8.4629   -3.4200    0.0000 C   0  0  0  0  0  0  0  0  0  0  0  0
    9.7619   -2.6700    0.0000 C   0  0  0  0  0  0  0  0  0  0  0  0
    9.7619   -1.1700    0.0000 C   0  0  0  0  0  0  0  0  0  0  0  0
    8.4629   -0.4200    0.0000 N   0  0  0  0  0  0  0  0  0  0  0  0
    7.1639   -1.1700    0.0000 C   0  0  0  0  0  0  0  0  0  0  0  0
  1  2  1  0  0  0  0
  2  3  1  0  0  0  0
  2  4  1  0  0  0  0
  2 12  1  0  0  0  0
  4  5  1  0  0  0  0
  6  5  2  0  0  0  0
  5 11  1  0  0  0  0
  7  6  1  0  0  0  0
  8  7  2  0  0  0  0
  8  9  1  0  0  0  0
 10  8  1  0  0  0  0
 11 10  2  0  0  0  0
 12 13  2  0  0  0  0
 12 14  1  0  0  0  0
 14 15  1  0  0  0  0
 15 16  1  0  0  0  0
 16 17  1  0  0  0  0
 17 18  1  0  0  0  0
 18 19  2  0  0  0  0
 18 20  1  0  0  0  0
 21 20  2  0  0  0  0
 20 25  1  0  0  0  0
 22 21  1  0  0  0  0
 23 22  2  0  0  0  0
 24 23  1  0  0  0  0
 25 24  2  0  0  0  0
M  END
> <Inchi_key>
MCECKJXCBZXVJI-UHFFFAOYSA-N

> <Source>
Mulliner

> <ID>
HT1668

> <H_MFHB>
0

> <CAS>
57548-79-5

> <Cholestasis>


> <Name>
picafibrate

> <Class>
0


$$$$