

  -INDIGO-08031710012D

 43 50  0  0  0  0  0  0  0  0999 V2000
    8.7217    8.7196    0.0000 C   0  0  0  0  0  0  0  0  0  0  0  0
    8.7214    7.2196    0.0000 N   0  0  0  0  0  0  0  0  0  0  0  0
    7.4240    6.4666    0.0000 C   0  0  0  0  0  0  0  0  0  0  0  0
    7.4277    4.9666    0.0000 C   0  0  0  0  0  0  0  0  0  0  0  0
    8.7275    4.2204    0.0000 C   0  0  0  0  0  0  0  0  0  0  0  0
   10.0330    5.0060    0.0000 C   0  0  0  0  0  0  0  0  0  0  0  0
   10.0142    6.4683    0.0000 C   0  0  0  0  0  0  0  0  0  0  0  0
   11.2765    7.2159    0.0000 C   0  0  0  0  0  0  0  0  0  0  0  0
   12.5537    6.5004    0.0000 C   0  0  0  0  0  0  0  0  0  0  0  0
   13.9659    6.9985    0.0000 C   0  0  0  0  0  0  0  0  0  0  0  0
   14.9082    5.3881    0.0000 N   0  0  0  0  0  0  0  0  0  0  0  0
   13.8497    4.3132    0.0000 C   0  0  0  0  0  0  0  0  0  0  0  0
   13.8613    2.8414    0.0000 C   0  0  0  0  0  0  0  0  0  0  0  0
   12.5958    2.0948    0.0000 C   0  0  0  0  0  0  0  0  0  0  0  0
   11.3249    2.8187    0.0000 C   0  0  0  0  0  0  0  0  0  0  0  0
   11.3062    4.2808    0.0000 C   0  0  0  0  0  0  0  0  0  0  0  0
   12.5673    5.0308    0.0000 C   0  0  0  0  0  0  0  0  0  0  0  0
    6.1303    4.2134    0.0000 C   0  0  0  0  0  0  0  0  0  0  0  0
    6.1340    2.7134    0.0000 O   0  0  0  0  0  0  0  0  0  0  0  0
    4.8297    4.9603    0.0000 N   0  0  0  0  0  0  0  0  0  0  0  0
    3.5323    4.2071    0.0000 C   0  0  0  0  0  0  0  0  0  0  0  0
    4.7994    3.4043    0.0000 C   0  0  0  0  0  0  0  0  0  0  0  0
    2.6531    5.4226    0.0000 O   0  0  0  0  0  0  0  0  0  0  0  0
    1.2254    4.9618    0.0000 C   0  0  0  0  0  0  0  0  0  0  0  0
    1.3854    6.4533    0.0000 O   0  0  0  0  0  0  0  0  0  0  0  0
   -0.0721    5.7143    0.0000 C   0  0  0  0  0  0  0  0  0  0  0  0
   -0.3811    7.1823    0.0000 C   0  0  0  0  0  0  0  0  0  0  0  0
   -1.8725    7.3419    0.0000 C   0  0  0  0  0  0  0  0  0  0  0  0
   -2.4853    5.9728    0.0000 C   0  0  0  0  0  0  0  0  0  0  0  0
   -1.3724    4.9669    0.0000 N   0  0  0  0  0  0  0  0  0  0  0  0
   -1.3755    3.4669    0.0000 C   0  0  0  0  0  0  0  0  0  0  0  0
   -2.6761    2.7195    0.0000 O   0  0  0  0  0  0  0  0  0  0  0  0
   -0.0778    2.7143    0.0000 C   0  0  0  0  0  0  0  0  0  0  0  0
   -0.0810    1.2144    0.0000 C   0  0  0  0  0  0  0  0  0  0  0  0
   -1.3813    0.4669    0.0000 C   0  0  0  0  0  0  0  0  0  0  0  0
   -2.6790    1.2195    0.0000 C   0  0  0  0  0  0  0  0  0  0  0  0
   -3.9796    0.4721    0.0000 C   0  0  0  0  0  0  0  0  0  0  0  0
   -3.9825   -1.0279    0.0000 C   0  0  0  0  0  0  0  0  0  0  0  0
   -2.6848   -1.7805    0.0000 C   0  0  0  0  0  0  0  0  0  0  0  0
   -1.3845   -1.0331    0.0000 C   0  0  0  0  0  0  0  0  0  0  0  0
    1.2225    3.4618    0.0000 N   0  0  0  0  0  0  0  0  0  0  0  0
    2.6482    2.9954    0.0000 C   0  0  0  0  0  0  0  0  0  0  0  0
    3.1088    1.5680    0.0000 O   0  0  0  0  0  0  0  0  0  0  0  0
  1  2  1  0  0  0  0
  3  2  1  0  0  0  0
  2  7  1  0  0  0  0
  4  3  1  0  0  0  0
  5  4  1  0  0  0  0
  4 18  1  0  0  0  0
  6  5  1  0  0  0  0
  6  7  1  0  0  0  0
 16  6  1  0  0  0  0
  7  8  1  0  0  0  0
  8  9  1  0  0  0  0
 10  9  2  0  0  0  0
  9 17  1  0  0  0  0
 11 10  1  0  0  0  0
 12 11  1  0  0  0  0
 13 12  1  0  0  0  0
 12 17  2  0  0  0  0
 14 13  2  0  0  0  0
 15 14  1  0  0  0  0
 16 15  2  0  0  0  0
 17 16  1  0  0  0  0
 18 19  2  0  0  0  0
 18 20  1  0  0  0  0
 20 21  1  0  0  0  0
 21 22  1  0  0  0  0
 23 21  1  0  0  0  0
 21 42  1  0  0  0  0
 24 23  1  0  0  0  0
 24 25  1  0  0  0  0
 26 24  1  0  0  0  0
 24 41  1  0  0  0  0
 27 26  1  0  0  0  0
 26 30  1  0  0  0  0
 28 27  1  0  0  0  0
 29 28  1  0  0  0  0
 30 29  1  0  0  0  0
 31 30  1  0  0  0  0
 31 32  2  0  0  0  0
 33 31  1  0  0  0  0
 33 34  1  0  0  0  0
 41 33  1  0  0  0  0
 34 35  1  0  0  0  0
 36 35  2  0  0  0  0
 35 40  1  0  0  0  0
 37 36  1  0  0  0  0
 38 37  2  0  0  0  0
 39 38  1  0  0  0  0
 40 39  2  0  0  0  0
 42 41  1  0  0  0  0
 42 43  2  0  0  0  0
M  END
> <Inchi_key>
LUZRJRNZXALNLM-UHFFFAOYSA-N

> <Source>
Mulliner , Kotsampasakou

> <ID>
EK0165;HT0669

> <H_MFHB>
0

> <CAS>


> <Cholestasis>
0

> <Name>
dihydroergotamine mesylate;dihydroergotamine;dihydroergotoxine

> <Class>
0


$$$$