
  -INDIGO-08031709442D

 12 12  0  0  0  0  0  0  0  0999 V2000
    0.0269    1.3995    0.0000 O   0  0  0  0  0  0  0  0  0  0  0  0
    1.3260    0.6495    0.0000 C   0  0  0  0  0  0  0  0  0  0  0  0
    2.6250    1.3995    0.0000 C   0  0  0  0  0  0  0  0  0  0  0  0
    2.6250    2.8995    0.0000 C   0  0  0  0  0  0  0  0  0  0  0  0
    1.3260    3.6495    0.0000 O   0  0  0  0  0  0  0  0  0  0  0  0
    3.9240    0.6495    0.0000 C   0  0  0  0  0  0  0  0  0  0  0  0
    3.9240   -0.8505    0.0000 C   0  0  0  0  0  0  0  0  0  0  0  0
    2.6250   -1.6005    0.0000 N   0  0  0  0  0  0  0  0  0  0  0  0
    1.3260   -0.8505    0.0000 C   0  0  0  0  0  0  0  0  0  0  0  0
    0.0269   -1.6005    0.0000 C   0  0  0  0  0  0  0  0  0  0  0  0
    5.2231    1.3995    0.0000 C   0  0  0  0  0  0  0  0  0  0  0  0
    6.5221    0.6495    0.0000 O   0  0  0  0  0  0  0  0  0  0  0  0
  1  2  1  0  0  0  0
  3  2  2  0  0  0  0
  2  9  1  0  0  0  0
  3  4  1  0  0  0  0
  6  3  1  0  0  0  0
  4  5  1  0  0  0  0
  7  6  2  0  0  0  0
  6 11  1  0  0  0  0
  8  7  1  0  0  0  0
  9  8  2  0  0  0  0
  9 10  1  0  0  0  0
 11 12  1  0  0  0  0
M  END
> <Inchi_key>
LXNHXLLTXMVWPM-UHFFFAOYSA-N

> <Source>
Kotsampasakou

> <ID>
EK0567

> <H_MFHB>


> <CAS>


> <Cholestasis>
0

> <Name>
vitamin b6

> <Class>
0

$$$$