

  -INDIGO-08031710012D

 15 14  0  0  0  0  0  0  0  0999 V2000
   -0.4000    0.6928    0.0000 C   0  0  0  0  0  0  0  0  0  0  0  0
    0.3500    1.9919    0.0000 C   0  0  0  0  0  0  0  0  0  0  0  0
   -0.4000    3.2909    0.0000 O   0  0  0  0  0  0  0  0  0  0  0  0
    1.8500    1.9919    0.0000 N   0  0  0  0  0  0  0  0  0  0  0  0
    2.6000    3.2909    0.0000 C   0  0  0  0  0  0  0  0  0  0  0  0
    1.8500    4.5899    0.0000 C   0  0  0  0  0  0  0  0  0  0  0  0
    2.6000    5.8890    0.0000 O   0  0  0  0  0  0  0  0  0  0  0  0
    4.1001    3.2909    0.0000 C   0  0  0  0  0  0  0  0  0  0  0  0
    4.8500    4.5899    0.0000 O   0  0  0  0  0  0  0  0  0  0  0  0
    4.8500    1.9919    0.0000 C   0  0  0  0  0  0  0  0  0  0  0  0
    4.1001    0.6928    0.0000 O   0  0  0  0  0  0  0  0  0  0  0  0
    6.3500    1.9919    0.0000 C   0  0  0  0  0  0  0  0  0  0  0  0
    7.1001    3.2909    0.0000 O   0  0  0  0  0  0  0  0  0  0  0  0
    7.1001    0.6928    0.0000 C   0  0  0  0  0  0  0  0  0  0  0  0
    8.6000    0.6928    0.0000 O   0  0  0  0  0  0  0  0  0  0  0  0
  1  2  1  0  0  0  0
  2  3  2  0  0  0  0
  2  4  1  0  0  0  0
  4  5  1  0  0  0  0
  5  6  1  0  0  0  0
  5  8  1  0  0  0  0
  6  7  2  0  0  0  0
  8  9  1  0  0  0  0
  8 10  1  0  0  0  0
 10 11  1  0  0  0  0
 10 12  1  0  0  0  0
 12 13  1  0  0  0  0
 12 14  1  0  0  0  0
 14 15  1  0  0  0  0
M  END
> <Inchi_key>
MBLBDJOUHNCFQT-UHFFFAOYSA-N

> <Source>
Mulliner

> <ID>
HT1448

> <H_MFHB>
0

> <CAS>


> <Cholestasis>


> <Name>
n-acetyl-d-glucosamine

> <Class>
0


$$$$