

  -INDIGO-08031710012D

 36 39  0  0  0  0  0  0  0  0999 V2000
    7.3418   -1.1959    0.0000 O   0  0  0  0  0  0  0  0  0  0  0  0
    6.5918   -2.4947    0.0000 C   0  0  0  0  0  0  0  0  0  0  0  0
    5.2928   -1.7448    0.0000 C   0  0  0  0  0  0  0  0  0  0  0  0
    3.9937   -2.4947    0.0000 C   0  0  0  0  0  0  0  0  0  0  0  0
    3.9937   -3.9948    0.0000 N   0  0  0  0  0  0  0  0  0  0  0  0
    2.6949   -4.7448    0.0000 C   0  0  0  0  0  0  0  0  0  0  0  0
    1.3956   -3.9948    0.0000 C   0  0  0  0  0  0  0  0  0  0  0  0
    0.0968   -4.7448    0.0000 C   0  0  0  0  0  0  0  0  0  0  0  0
   -1.2023   -3.9948    0.0000 C   0  0  0  0  0  0  0  0  0  0  0  0
   -2.5013   -4.7448    0.0000 C   0  0  0  0  0  0  0  0  0  0  0  0
   -2.5013   -6.2448    0.0000 C   0  0  0  0  0  0  0  0  0  0  0  0
   -3.8004   -6.9948    0.0000 C   0  0  0  0  0  0  0  0  0  0  0  0
   -5.0994   -6.2448    0.0000 C   0  0  0  0  0  0  0  0  0  0  0  0
   -6.3985   -6.9948    0.0000 F   0  0  0  0  0  0  0  0  0  0  0  0
   -5.0994   -4.7448    0.0000 C   0  0  0  0  0  0  0  0  0  0  0  0
   -3.8004   -3.9948    0.0000 C   0  0  0  0  0  0  0  0  0  0  0  0
   -1.2023   -2.4947    0.0000 C   0  0  0  0  0  0  0  0  0  0  0  0
   -2.5013   -1.7448    0.0000 C   0  0  0  0  0  0  0  0  0  0  0  0
   -2.5013   -0.2448    0.0000 C   0  0  0  0  0  0  0  0  0  0  0  0
   -1.2023    0.5053    0.0000 C   0  0  0  0  0  0  0  0  0  0  0  0
   -1.2023    2.0052    0.0000 F   0  0  0  0  0  0  0  0  0  0  0  0
    0.0968   -0.2448    0.0000 C   0  0  0  0  0  0  0  0  0  0  0  0
    0.0968   -1.7448    0.0000 C   0  0  0  0  0  0  0  0  0  0  0  0
    5.2928   -4.7448    0.0000 C   0  0  0  0  0  0  0  0  0  0  0  0
    6.5918   -3.9948    0.0000 C   0  0  0  0  0  0  0  0  0  0  0  0
    8.0920   -2.4947    0.0000 C   0  0  0  0  0  0  0  0  0  0  0  0
    8.8419   -3.7939    0.0000 C   0  0  0  0  0  0  0  0  0  0  0  0
   10.3418   -3.7939    0.0000 C   0  0  0  0  0  0  0  0  0  0  0  0
   11.0920   -2.4947    0.0000 C   0  0  0  0  0  0  0  0  0  0  0  0
   12.5919   -2.4947    0.0000 Cl  0  0  0  0  0  0  0  0  0  0  0  0
   10.3418   -1.1959    0.0000 C   0  0  0  0  0  0  0  0  0  0  0  0
    8.8419   -1.1959    0.0000 C   0  0  0  0  0  0  0  0  0  0  0  0
   11.0920    0.1033    0.0000 C   0  0  0  0  0  0  0  0  0  0  0  0
   11.8420    1.4023    0.0000 F   0  0  0  0  0  0  0  0  0  0  0  0
   12.3908   -0.6467    0.0000 F   0  0  0  0  0  0  0  0  0  0  0  0
    9.7927    0.8533    0.0000 F   0  0  0  0  0  0  0  0  0  0  0  0
  1  2  1  0  0  0  0
  3  2  1  0  0  0  0
  2 25  1  0  0  0  0
  2 26  1  0  0  0  0
  4  3  1  0  0  0  0
  5  4  1  0  0  0  0
  5  6  1  0  0  0  0
 24  5  1  0  0  0  0
  6  7  1  0  0  0  0
  7  8  1  0  0  0  0
  8  9  1  0  0  0  0
  9 10  1  0  0  0  0
  9 17  1  0  0  0  0
 11 10  2  0  0  0  0
 10 16  1  0  0  0  0
 12 11  1  0  0  0  0
 13 12  2  0  0  0  0
 13 14  1  0  0  0  0
 15 13  1  0  0  0  0
 16 15  2  0  0  0  0
 18 17  2  0  0  0  0
 17 23  1  0  0  0  0
 19 18  1  0  0  0  0
 20 19  2  0  0  0  0
 20 21  1  0  0  0  0
 22 20  1  0  0  0  0
 23 22  2  0  0  0  0
 25 24  1  0  0  0  0
 27 26  2  0  0  0  0
 26 32  1  0  0  0  0
 28 27  1  0  0  0  0
 29 28  2  0  0  0  0
 29 30  1  0  0  0  0
 31 29  1  0  0  0  0
 32 31  2  0  0  0  0
 31 33  1  0  0  0  0
 33 34  1  0  0  0  0
 33 35  1  0  0  0  0
 33 36  1  0  0  0  0
M  END
> <Inchi_key>
MDLAAYDRRZXJIF-UHFFFAOYSA-N

> <Source>
Mulliner

> <ID>
HT1612

> <H_MFHB>
0

> <CAS>


> <Cholestasis>


> <Name>
penfluridol

> <Class>
0


$$$$