
  -INDIGO-08031709442D

 33 34  0  0  0  0  0  0  0  0999 V2000
   -5.1069    5.1068    0.0000 O   0  0  0  0  0  0  0  0  0  0  0  0
   -5.1069    6.6068    0.0000 C   0  0  0  0  0  0  0  0  0  0  0  0
   -6.4056    7.3568    0.0000 C   0  0  0  0  0  0  0  0  0  0  0  0
   -6.4056    8.8568    0.0000 C   0  0  0  0  0  0  0  0  0  0  0  0
   -7.7048    9.6068    0.0000 C   0  0  0  0  0  0  0  0  0  0  0  0
   -9.0039    8.8568    0.0000 C   0  0  0  0  0  0  0  0  0  0  0  0
   -9.0039    7.3568    0.0000 C   0  0  0  0  0  0  0  0  0  0  0  0
   -7.7048    6.6068    0.0000 C   0  0  0  0  0  0  0  0  0  0  0  0
   -5.1069    9.6068    0.0000 C   0  0  0  0  0  0  0  0  0  0  0  0
   -5.1069   11.1068    0.0000 O   0  0  0  0  0  0  0  0  0  0  0  0
   -3.8077    8.8568    0.0000 C   0  0  0  0  0  0  0  0  0  0  0  0
   -2.5086    9.6068    0.0000 C   0  0  0  0  0  0  0  0  0  0  0  0
   -3.8077    7.3568    0.0000 C   0  0  0  0  0  0  0  0  0  0  0  0
   -2.5086    6.6068    0.0000 C   0  0  0  0  0  0  0  0  0  0  0  0
   -1.2095    7.3568    0.0000 C   0  0  0  0  0  0  0  0  0  0  0  0
    0.0893    6.6068    0.0000 C   0  0  0  0  0  0  0  0  0  0  0  0
    1.3884    7.3568    0.0000 C   0  0  0  0  0  0  0  0  0  0  0  0
    2.6876    6.6068    0.0000 C   0  0  0  0  0  0  0  0  0  0  0  0
    3.9863    7.3568    0.0000 C   0  0  0  0  0  0  0  0  0  0  0  0
    5.2854    6.6068    0.0000 C   0  0  0  0  0  0  0  0  0  0  0  0
    6.5846    7.3568    0.0000 C   0  0  0  0  0  0  0  0  0  0  0  0
    7.8837    6.6068    0.0000 C   0  0  0  0  0  0  0  0  0  0  0  0
    9.1829    7.3568    0.0000 C   0  0  0  0  0  0  0  0  0  0  0  0
   10.4816    6.6068    0.0000 C   0  0  0  0  0  0  0  0  0  0  0  0
   11.7807    7.3568    0.0000 C   0  0  0  0  0  0  0  0  0  0  0  0
   13.0799    6.6068    0.0000 C   0  0  0  0  0  0  0  0  0  0  0  0
   14.3786    7.3568    0.0000 C   0  0  0  0  0  0  0  0  0  0  0  0
   15.6778    6.6068    0.0000 C   0  0  0  0  0  0  0  0  0  0  0  0
   15.6778    5.1068    0.0000 C   0  0  0  0  0  0  0  0  0  0  0  0
   16.9769    7.3568    0.0000 C   0  0  0  0  0  0  0  0  0  0  0  0
   10.4816    5.1068    0.0000 C   0  0  0  0  0  0  0  0  0  0  0  0
    5.2854    5.1068    0.0000 C   0  0  0  0  0  0  0  0  0  0  0  0
    0.0893    5.1068    0.0000 C   0  0  0  0  0  0  0  0  0  0  0  0
  1  2  2  0  0  0  0
  3  2  1  0  0  0  0
  2 13  1  0  0  0  0
  3  4  2  0  0  0  0
  8  3  1  0  0  0  0
  4  5  1  0  0  0  0
  9  4  1  0  0  0  0
  5  6  2  0  0  0  0
  6  7  1  0  0  0  0
  7  8  2  0  0  0  0
  9 10  2  0  0  0  0
 11  9  1  0  0  0  0
 11 12  1  0  0  0  0
 13 11  2  0  0  0  0
 13 14  1  0  0  0  0
 14 15  1  0  0  0  0
 15 16  2  0  0  0  0
 16 17  1  0  0  0  0
 16 33  1  0  0  0  0
 17 18  1  0  0  0  0
 18 19  1  0  0  0  0
 19 20  1  0  0  0  0
 20 21  1  0  0  0  0
 20 32  1  0  0  0  0
 21 22  1  0  0  0  0
 22 23  1  0  0  0  0
 23 24  1  0  0  0  0
 24 25  1  0  0  0  0
 24 31  1  0  0  0  0
 25 26  1  0  0  0  0
 26 27  1  0  0  0  0
 27 28  1  0  0  0  0
 28 29  1  0  0  0  0
 28 30  1  0  0  0  0
M  END
> <Inchi_key>
MBWXNTAXLNYFJB-LKUDQCMESA-N

> <Source>
Kotsampasakou

> <ID>
EK0569

> <H_MFHB>


> <CAS>


> <Cholestasis>
0

> <Name>
vitamin k

> <Class>
0

$$$$