
  -INDIGO-08031710012D

 23 26  0  0  0  0  0  0  0  0999 V2000
   -0.1946   -1.9428    0.0000 C   0  0  0  0  0  0  0  0  0  0  0  0
    1.2755   -2.2403    0.0000 N   0  0  0  0  0  0  0  0  0  0  0  0
    0.6946   -3.6232    0.0000 C   0  0  0  0  0  0  0  0  0  0  0  0
    2.2399   -1.0669    0.0000 C   0  0  0  0  0  0  0  0  0  0  0  0
    3.7944   -1.9614    0.0000 C   0  0  0  0  0  0  0  0  0  0  0  0
    5.0163   -1.7496    0.0000 C   0  0  0  0  0  0  0  0  0  0  0  0
    4.0431   -2.9253    0.0000 C   0  0  0  0  0  0  0  0  0  0  0  0
    2.5770   -2.0508    0.0000 C   0  0  0  0  0  0  0  0  0  0  0  0
    2.7149   -0.6184    0.0000 C   0  0  0  0  0  0  0  0  0  0  0  0
    3.5509    0.5531    0.0000 O   0  0  0  0  0  0  0  0  0  0  0  0
    2.0704    0.5497    0.0000 C   0  0  0  0  0  0  0  0  0  0  0  0
    6.3141   -0.9976    0.0000 O   0  0  0  0  0  0  0  0  0  0  0  0
    7.6143   -1.7456    0.0000 C   0  0  0  0  0  0  0  0  0  0  0  0
    7.6165   -3.2456    0.0000 O   0  0  0  0  0  0  0  0  0  0  0  0
    8.9122   -0.9937    0.0000 C   0  0  0  0  0  0  0  0  0  0  0  0
    8.9100    0.5063    0.0000 C   0  0  0  0  0  0  0  0  0  0  0  0
   10.2079    1.2583    0.0000 O   0  0  0  0  0  0  0  0  0  0  0  0
   10.2124   -1.7417    0.0000 C   0  0  0  0  0  0  0  0  0  0  0  0
   11.5103   -0.9898    0.0000 C   0  0  0  0  0  0  0  0  0  0  0  0
   12.8105   -1.7378    0.0000 C   0  0  0  0  0  0  0  0  0  0  0  0
   12.8127   -3.2378    0.0000 C   0  0  0  0  0  0  0  0  0  0  0  0
   11.5148   -3.9898    0.0000 C   0  0  0  0  0  0  0  0  0  0  0  0
   10.2146   -3.2417    0.0000 C   0  0  0  0  0  0  0  0  0  0  0  0
  1  2  1  0  0  0  0
  2  3  1  0  0  0  0
  4  2  1  0  0  0  0
  2  8  1  0  0  0  0
  4  5  1  0  0  0  0
 11  4  1  0  0  0  0
  5  6  1  0  0  0  0
  6  7  1  0  0  0  0
  6 12  1  0  0  0  0
  7  8  1  0  0  0  0
  8  9  1  0  0  0  0
 10  9  1  0  0  0  0
  9 11  1  0  0  0  0
 11 10  1  0  0  0  0
 12 13  1  0  0  0  0
 13 14  2  0  0  0  0
 13 15  1  0  0  0  0
 15 16  1  0  0  0  0
 15 18  1  0  0  0  0
 16 17  1  0  0  0  0
 19 18  2  0  0  0  0
 18 23  1  0  0  0  0
 20 19  1  0  0  0  0
 21 20  2  0  0  0  0
 22 21  1  0  0  0  0
 23 22  2  0  0  0  0
M  CHG  1   2   1
M  END
> <Inchi_key>
LZCOQTDXKCNBEE-UHFFFAOYSA-N

> <Source>
Mulliner

> <ID>
HT1369

> <H_MFHB>
0

> <CAS>


> <Cholestasis>


> <Name>
methylscopolamine

> <Class>
0

$$$$