
  -INDIGO-08031710012D

 29 31  0  0  0  0  0  0  0  0999 V2000
   -2.7140   -6.8452    0.0000 C   0  0  0  0  0  0  0  0  0  0  0  0
   -1.7108   -5.7301    0.0000 C   0  0  0  0  0  0  0  0  0  0  0  0
   -2.1747   -4.3037    0.0000 C   0  0  0  0  0  0  0  0  0  0  0  0
   -0.2435   -6.0413    0.0000 C   0  0  0  0  0  0  0  0  0  0  0  0
    0.2206   -7.4677    0.0000 C   0  0  0  0  0  0  0  0  0  0  0  0
    0.7599   -4.9262    0.0000 C   0  0  0  0  0  0  0  0  0  0  0  0
    2.2273   -5.2375    0.0000 C   0  0  0  0  0  0  0  0  0  0  0  0
    2.6914   -6.6639    0.0000 C   0  0  0  0  0  0  0  0  0  0  0  0
    1.6879   -7.7790    0.0000 C   0  0  0  0  0  0  0  0  0  0  0  0
    4.1587   -6.9752    0.0000 C   0  0  0  0  0  0  0  0  0  0  0  0
    4.7693   -8.3453    0.0000 C   0  0  0  0  0  0  0  0  0  0  0  0
    6.2610   -8.1879    0.0000 C   0  0  0  0  0  0  0  0  0  0  0  0
    6.5723   -6.7205    0.0000 C   0  0  0  0  0  0  0  0  0  0  0  0
    7.8710   -5.9700    0.0000 C   0  0  0  0  0  0  0  0  0  0  0  0
    9.1704   -6.7195    0.0000 C   0  0  0  0  0  0  0  0  0  0  0  0
   10.4691   -5.9690    0.0000 C   0  0  0  0  0  0  0  0  0  0  0  0
   11.7684   -6.7185    0.0000 C   0  0  0  0  0  0  0  0  0  0  0  0
   13.0672   -5.9680    0.0000 C   0  0  0  0  0  0  0  0  0  0  0  0
   14.3665   -6.7174    0.0000 C   0  0  0  0  0  0  0  0  0  0  0  0
   15.6653   -5.9669    0.0000 O   0  0  0  0  0  0  0  0  0  0  0  0
   14.3671   -8.2174    0.0000 C   0  0  0  0  0  0  0  0  0  0  0  0
   13.0683   -8.9680    0.0000 C   0  0  0  0  0  0  0  0  0  0  0  0
   11.7690   -8.2185    0.0000 C   0  0  0  0  0  0  0  0  0  0  0  0
   10.4702   -8.9690    0.0000 C   0  0  0  0  0  0  0  0  0  0  0  0
    7.8705   -4.4700    0.0000 C   0  0  0  0  0  0  0  0  0  0  0  0
    6.5711   -3.7205    0.0000 C   0  0  0  0  0  0  0  0  0  0  0  0
    5.2724   -4.4711    0.0000 C   0  0  0  0  0  0  0  0  0  0  0  0
    5.2729   -5.9711    0.0000 C   0  0  0  0  0  0  0  0  0  0  0  0
    3.9133   -5.3377    0.0000 C   0  0  0  0  0  0  0  0  0  0  0  0
  1  2  1  0  0  0  0
  2  3  1  0  0  0  0
  2  4  1  0  0  0  0
  4  5  1  0  0  0  0
  4  6  1  0  0  0  0
  6  7  2  0  0  0  0
  7  8  1  0  0  0  0
  8  9  1  0  0  0  0
  8 10  1  0  0  0  0
 11 10  1  0  0  0  0
 10 28  1  0  0  0  0
 12 11  1  0  0  0  0
 13 12  1  0  0  0  0
 14 13  1  0  0  0  0
 13 28  1  0  0  0  0
 14 15  2  0  0  0  0
 25 14  1  0  0  0  0
 15 16  1  0  0  0  0
 16 17  2  0  0  0  0
 18 17  1  0  0  0  0
 17 23  1  0  0  0  0
 19 18  1  0  0  0  0
 19 20  1  0  0  0  0
 21 19  1  0  0  0  0
 22 21  1  0  0  0  0
 23 22  1  0  0  0  0
 23 24  2  0  0  0  0
 26 25  1  0  0  0  0
 27 26  1  0  0  0  0
 28 27  1  0  0  0  0
 28 29  1  0  0  0  0
M  END
> <Inchi_key>
MECHNRXZTMCUDQ-QWYDOCPHSA-N, MECHNRXZTMCUDQ-ZJGOHBTISA-N

> <Source>
Mulliner,  Kotsampasakou

> <ID>
EK0189;HT0775

> <H_MFHB>
0

> <CAS>


> <Cholestasis>
0

> <Name>
ergocalciferol

> <Class>
0

$$$$