
  -INDIGO-08031710012D

 13 12  0  0  0  0  0  0  0  0999 V2000
   12.4375    2.0634    0.0000 O   0  0  0  0  0  0  0  0  0  0  0  0
   11.1386    2.8134    0.0000 C   0  0  0  0  0  0  0  0  0  0  0  0
   11.1386    4.3134    0.0000 O   0  0  0  0  0  0  0  0  0  0  0  0
    9.8394    2.0634    0.0000 C   0  0  0  0  0  0  0  0  0  0  0  0
    8.5405    2.8134    0.0000 C   0  0  0  0  0  0  0  0  0  0  0  0
    7.2413    2.0634    0.0000 C   0  0  0  0  0  0  0  0  0  0  0  0
    5.9422    2.8134    0.0000 C   0  0  0  0  0  0  0  0  0  0  0  0
    4.6433    2.0634    0.0000 C   0  0  0  0  0  0  0  0  0  0  0  0
    3.3441    2.8134    0.0000 C   0  0  0  0  0  0  0  0  0  0  0  0
    2.0452    2.0634    0.0000 C   0  0  0  0  0  0  0  0  0  0  0  0
    0.7462    2.8134    0.0000 C   0  0  0  0  0  0  0  0  0  0  0  0
   -0.5529    2.0634    0.0000 O   0  0  0  0  0  0  0  0  0  0  0  0
    0.7462    4.3134    0.0000 O   0  0  0  0  0  0  0  0  0  0  0  0
  1  2  1  0  0  0  0
  2  3  2  0  0  0  0
  2  4  1  0  0  0  0
  4  5  1  0  0  0  0
  5  6  1  0  0  0  0
  6  7  1  0  0  0  0
  7  8  1  0  0  0  0
  8  9  1  0  0  0  0
  9 10  1  0  0  0  0
 10 11  1  0  0  0  0
 11 12  2  0  0  0  0
 11 13  1  0  0  0  0
M  END
> <Inchi_key>
BDJRBEYXGGNYIS-UHFFFAOYSA-N

> <Source>
Mulliner , Kotsampasakou

> <ID>
EK0046;HT0214

> <H_MFHB>
0

> <CAS>


> <Cholestasis>
0

> <Name>
azelaic acid

> <Class>
0

$$$$