
  -INDIGO-08031710012D

 22 24  0  0  0  0  0  0  0  0999 V2000
   11.0725   -4.7833    0.0000 C   0  0  0  0  0  0  0  0  0  0  0  0
    9.7736   -4.0333    0.0000 C   0  0  0  0  0  0  0  0  0  0  0  0
    9.7736   -2.5333    0.0000 C   0  0  0  0  0  0  0  0  0  0  0  0
    8.4743   -1.7833    0.0000 C   0  0  0  0  0  0  0  0  0  0  0  0
    8.3177   -0.2914    0.0000 C   0  0  0  0  0  0  0  0  0  0  0  0
    9.4325    0.7121    0.0000 O   0  0  0  0  0  0  0  0  0  0  0  0
    6.8503    0.0203    0.0000 N   0  0  0  0  0  0  0  0  0  0  0  0
    6.1004   -1.2787    0.0000 N   0  0  0  0  0  0  0  0  0  0  0  0
    7.1041   -2.3934    0.0000 C   0  0  0  0  0  0  0  0  0  0  0  0
    6.7922   -3.8606    0.0000 O   0  0  0  0  0  0  0  0  0  0  0  0
    4.6004   -1.2787    0.0000 C   0  0  0  0  0  0  0  0  0  0  0  0
    3.8504   -2.5777    0.0000 C   0  0  0  0  0  0  0  0  0  0  0  0
    2.3504   -2.5777    0.0000 C   0  0  0  0  0  0  0  0  0  0  0  0
    1.6004   -3.8768    0.0000 C   0  0  0  0  0  0  0  0  0  0  0  0
    1.6004   -1.2787    0.0000 C   0  0  0  0  0  0  0  0  0  0  0  0
    2.3504    0.0203    0.0000 C   0  0  0  0  0  0  0  0  0  0  0  0
    3.8504    0.0203    0.0000 C   0  0  0  0  0  0  0  0  0  0  0  0
    4.6004    1.3194    0.0000 N   0  0  0  0  0  0  0  0  0  0  0  0
    6.1004    1.3194    0.0000 C   0  0  0  0  0  0  0  0  0  0  0  0
    6.8503    2.6184    0.0000 N   0  0  0  0  0  0  0  0  0  0  0  0
    8.3503    2.6184    0.0000 C   0  0  0  0  0  0  0  0  0  0  0  0
    6.1004    3.9175    0.0000 C   0  0  0  0  0  0  0  0  0  0  0  0
  1  2  1  0  0  0  0
  2  3  1  0  0  0  0
  3  4  1  0  0  0  0
  5  4  1  0  0  0  0
  4  9  1  0  0  0  0
  5  6  2  0  0  0  0
  7  5  1  0  0  0  0
  7  8  1  0  0  0  0
 19  7  1  0  0  0  0
  9  8  1  0  0  0  0
  8 11  1  0  0  0  0
  9 10  2  0  0  0  0
 12 11  2  0  0  0  0
 11 17  1  0  0  0  0
 13 12  1  0  0  0  0
 13 14  1  0  0  0  0
 15 13  2  0  0  0  0
 16 15  1  0  0  0  0
 17 16  2  0  0  0  0
 17 18  1  0  0  0  0
 18 19  2  0  0  0  0
 19 20  1  0  0  0  0
 20 21  1  0  0  0  0
 20 22  1  0  0  0  0
M  END
> <Inchi_key>
MPHPHYZQRGLTBO-UHFFFAOYSA-N

> <Source>
Mulliner

> <ID>
HT0210

> <H_MFHB>
0

> <CAS>


> <Cholestasis>


> <Name>
azapropazone

> <Class>
0

$$$$