
  -INDIGO-08031710012D

 24 26  0  0  0  0  0  0  0  0999 V2000
    5.6251    7.4695    0.0000 C   0  0  0  0  0  0  0  0  0  0  0  0
    4.8749    6.1703    0.0000 C   0  0  0  0  0  0  0  0  0  0  0  0
    3.3750    6.1703    0.0000 C   0  0  0  0  0  0  0  0  0  0  0  0
    2.6250    4.8715    0.0000 C   0  0  0  0  0  0  0  0  0  0  0  0
    3.3750    3.5724    0.0000 C   0  0  0  0  0  0  0  0  0  0  0  0
    4.8749    3.5724    0.0000 C   0  0  0  0  0  0  0  0  0  0  0  0
    5.6251    4.8715    0.0000 N   0  0  0  0  0  0  0  0  0  0  0  0
    2.6250    2.2733    0.0000 C   0  0  0  0  0  0  0  0  0  0  0  0
    1.1250    2.2733    0.0000 N   0  0  0  0  0  0  0  0  0  0  0  0
    0.3750    0.9742    0.0000 C   0  0  0  0  0  0  0  0  0  0  0  0
    1.1250   -0.3248    0.0000 C   0  0  0  0  0  0  0  0  0  0  0  0
    0.3750   -1.6238    0.0000 Cl  0  0  0  0  0  0  0  0  0  0  0  0
    2.6250   -0.3248    0.0000 C   0  0  0  0  0  0  0  0  0  0  0  0
    3.3750    0.9742    0.0000 C   0  0  0  0  0  0  0  0  0  0  0  0
    4.8749    0.9742    0.0000 C   0  0  0  0  0  0  0  0  0  0  0  0
    5.6251   -0.3248    0.0000 C   0  0  0  0  0  0  0  0  0  0  0  0
    7.1251   -0.3248    0.0000 C   0  0  0  0  0  0  0  0  0  0  0  0
    7.8750    0.9742    0.0000 C   0  0  0  0  0  0  0  0  0  0  0  0
    7.1251    2.2733    0.0000 C   0  0  0  0  0  0  0  0  0  0  0  0
    5.6251    2.2733    0.0000 C   0  0  0  0  0  0  0  0  0  0  0  0
    9.3750    0.9742    0.0000 S   0  0  0  0  0  0  0  0  0  0  0  0
    9.3750    2.4743    0.0000 O   0  0  0  0  0  0  0  0  0  0  0  0
    9.3750   -0.5257    0.0000 O   0  0  0  0  0  0  0  0  0  0  0  0
   10.8750    0.9742    0.0000 C   0  0  0  0  0  0  0  0  0  0  0  0
  1  2  1  0  0  0  0
  3  2  2  0  0  0  0
  2  7  1  0  0  0  0
  4  3  1  0  0  0  0
  5  4  2  0  0  0  0
  6  5  1  0  0  0  0
  5  8  1  0  0  0  0
  7  6  2  0  0  0  0
  9  8  2  0  0  0  0
  8 14  1  0  0  0  0
 10  9  1  0  0  0  0
 11 10  2  0  0  0  0
 11 12  1  0  0  0  0
 13 11  1  0  0  0  0
 14 13  2  0  0  0  0
 14 15  1  0  0  0  0
 16 15  2  0  0  0  0
 15 20  1  0  0  0  0
 17 16  1  0  0  0  0
 18 17  2  0  0  0  0
 19 18  1  0  0  0  0
 18 21  1  0  0  0  0
 20 19  2  0  0  0  0
 21 22  2  0  0  0  0
 21 23  2  0  0  0  0
 21 24  1  0  0  0  0
M  END
> <Inchi_key>
MNJVRJDLRVPLFE-UHFFFAOYSA-N

> <Source>
Mulliner

> <ID>
HT0833

> <H_MFHB>
0

> <CAS>


> <Cholestasis>


> <Name>
etoricoxib

> <Class>
0

$$$$