
  -INDIGO-08031710012D

 49 53  0  0  0  0  0  0  0  0999 V2000
    3.9076   -0.3944    0.0000 C   0  0  0  0  0  0  0  0  0  0  0  0
    5.0277   -1.3920    0.0000 C   0  0  0  0  0  0  0  0  0  0  0  0
    4.7238   -2.8610    0.0000 C   0  0  0  0  0  0  0  0  0  0  0  0
    5.8439   -3.8588    0.0000 C   0  0  0  0  0  0  0  0  0  0  0  0
    5.5399   -5.3275    0.0000 N   0  0  0  0  0  0  0  0  0  0  0  0
    4.1156   -5.7988    0.0000 C   0  0  0  0  0  0  0  0  0  0  0  0
    2.9955   -4.8010    0.0000 O   0  0  0  0  0  0  0  0  0  0  0  0
    3.8116   -7.2675    0.0000 C   0  0  0  0  0  0  0  0  0  0  0  0
    4.8212   -8.3770    0.0000 C   0  0  0  0  0  0  0  0  0  0  0  0
    6.2903   -8.6810    0.0000 C   0  0  0  0  0  0  0  0  0  0  0  0
    6.4550  -10.1719    0.0000 C   0  0  0  0  0  0  0  0  0  0  0  0
    5.0879  -10.7894    0.0000 C   0  0  0  0  0  0  0  0  0  0  0  0
    4.0783   -9.6801    0.0000 C   0  0  0  0  0  0  0  0  0  0  0  0
    2.6095   -9.3759    0.0000 C   0  0  0  0  0  0  0  0  0  0  0  0
    2.4446   -7.8850    0.0000 N   0  0  0  0  0  0  0  0  0  0  0  0
    1.1415   -7.1421    0.0000 C   0  0  0  0  0  0  0  0  0  0  0  0
    1.1337   -5.6420    0.0000 O   0  0  0  0  0  0  0  0  0  0  0  0
   -0.1534   -7.8990    0.0000 C   0  0  0  0  0  0  0  0  0  0  0  0
   -1.4564   -7.1559    0.0000 N   0  0  0  0  0  0  0  0  0  0  0  0
   -1.4646   -5.6560    0.0000 C   0  0  0  0  0  0  0  0  0  0  0  0
   -0.1694   -4.8991    0.0000 O   0  0  0  0  0  0  0  0  0  0  0  0
   -2.7676   -4.9129    0.0000 C   0  0  0  0  0  0  0  0  0  0  0  0
   -2.7755   -3.4128    0.0000 N   0  0  0  0  0  0  0  0  0  0  0  0
   -4.0785   -2.6699    0.0000 C   0  0  0  0  0  0  0  0  0  0  0  0
   -5.3734   -3.4268    0.0000 O   0  0  0  0  0  0  0  0  0  0  0  0
   -4.0864   -1.1698    0.0000 C   0  0  0  0  0  0  0  0  0  0  0  0
   -5.3897   -0.4269    0.0000 C   0  0  0  0  0  0  0  0  0  0  0  0
   -5.3976    1.0732    0.0000 N   0  0  0  0  0  0  0  0  0  0  0  0
   -4.1027    1.8301    0.0000 C   0  0  0  0  0  0  0  0  0  0  0  0
   -2.7996    1.0872    0.0000 C   0  0  0  0  0  0  0  0  0  0  0  0
   -2.7915   -0.4129    0.0000 N   0  0  0  0  0  0  0  0  0  0  0  0
   -4.0625   -5.6698    0.0000 C   0  0  0  0  0  0  0  0  0  0  0  0
   -4.0544   -7.1696    0.0000 C   0  0  0  0  0  0  0  0  0  0  0  0
   -5.3496   -7.9268    0.0000 C   0  0  0  0  0  0  0  0  0  0  0  0
   -6.6524   -7.1836    0.0000 C   0  0  0  0  0  0  0  0  0  0  0  0
   -6.6605   -5.6838    0.0000 C   0  0  0  0  0  0  0  0  0  0  0  0
   -5.3656   -4.9267    0.0000 C   0  0  0  0  0  0  0  0  0  0  0  0
   -0.1455   -9.3988    0.0000 C   0  0  0  0  0  0  0  0  0  0  0  0
   -0.1374  -10.8989    0.0000 C   0  0  0  0  0  0  0  0  0  0  0  0
    1.3547   -9.3909    0.0000 C   0  0  0  0  0  0  0  0  0  0  0  0
   -1.6455   -9.4068    0.0000 C   0  0  0  0  0  0  0  0  0  0  0  0
    7.2679   -3.3876    0.0000 C   0  0  0  0  0  0  0  0  0  0  0  0
    7.5719   -1.9188    0.0000 O   0  0  0  0  0  0  0  0  0  0  0  0
    8.3880   -4.3853    0.0000 C   0  0  0  0  0  0  0  0  0  0  0  0
    8.0838   -5.8541    0.0000 O   0  0  0  0  0  0  0  0  0  0  0  0
    9.8121   -3.9141    0.0000 N   0  0  0  0  0  0  0  0  0  0  0  0
   10.9322   -4.9119    0.0000 C   0  0  0  0  0  0  0  0  0  0  0  0
   12.4010   -5.2159    0.0000 C   0  0  0  0  0  0  0  0  0  0  0  0
   11.4031   -6.3360    0.0000 C   0  0  0  0  0  0  0  0  0  0  0  0
  1  2  1  0  0  0  0
  2  3  1  0  0  0  0
  3  4  1  0  0  0  0
  4  5  1  0  0  0  0
  4 42  1  0  0  0  0
  5  6  1  0  0  0  0
  6  7  2  0  0  0  0
  6  8  1  0  0  0  0
  9  8  1  0  0  0  0
  8 15  1  0  0  0  0
 10  9  1  0  0  0  0
  9 13  1  0  0  0  0
 11 10  1  0  0  0  0
 12 11  1  0  0  0  0
 13 12  1  0  0  0  0
 14 13  1  0  0  0  0
 15 14  1  0  0  0  0
 15 16  1  0  0  0  0
 16 17  2  0  0  0  0
 16 18  1  0  0  0  0
 18 19  1  0  0  0  0
 18 38  1  0  0  0  0
 19 20  1  0  0  0  0
 20 21  2  0  0  0  0
 20 22  1  0  0  0  0
 22 23  1  0  0  0  0
 22 32  1  0  0  0  0
 23 24  1  0  0  0  0
 24 25  2  0  0  0  0
 24 26  1  0  0  0  0
 27 26  2  0  0  0  0
 26 31  1  0  0  0  0
 28 27  1  0  0  0  0
 29 28  2  0  0  0  0
 30 29  1  0  0  0  0
 31 30  2  0  0  0  0
 33 32  1  0  0  0  0
 32 37  1  0  0  0  0
 34 33  1  0  0  0  0
 35 34  1  0  0  0  0
 36 35  1  0  0  0  0
 37 36  1  0  0  0  0
 38 39  1  0  0  0  0
 38 40  1  0  0  0  0
 38 41  1  0  0  0  0
 42 43  2  0  0  0  0
 42 44  1  0  0  0  0
 44 45  2  0  0  0  0
 44 46  1  0  0  0  0
 46 47  1  0  0  0  0
 48 47  1  0  0  0  0
 47 49  1  0  0  0  0
 49 48  1  0  0  0  0
M  END
> <Inchi_key>
BBAWEDCPNXPBQM-UHFFFAOYSA-N

> <Source>
Mulliner

> <ID>
HT1990

> <H_MFHB>
0

> <CAS>


> <Cholestasis>


> <Name>
telaprevir

> <Class>
0

$$$$