

  -INDIGO-08031710012D

 22 25  0  0  0  0  0  0  0  0999 V2000
   11.7002   -3.1350    0.0000 C   0  0  0  0  0  0  0  0  0  0  0  0
   10.4011   -2.3851    0.0000 N   0  0  0  0  0  0  0  0  0  0  0  0
   10.4011   -0.8851    0.0000 C   0  0  0  0  0  0  0  0  0  0  0  0
    9.1021   -0.1350    0.0000 C   0  0  0  0  0  0  0  0  0  0  0  0
    7.8030   -0.8851    0.0000 C   0  0  0  0  0  0  0  0  0  0  0  0
    7.8030   -2.3851    0.0000 C   0  0  0  0  0  0  0  0  0  0  0  0
    6.5040   -3.1350    0.0000 C   0  0  0  0  0  0  0  0  0  0  0  0
    5.2051   -2.3851    0.0000 C   0  0  0  0  0  0  0  0  0  0  0  0
    3.9059   -3.1350    0.0000 C   0  0  0  0  0  0  0  0  0  0  0  0
    3.9059   -4.6350    0.0000 C   0  0  0  0  0  0  0  0  0  0  0  0
    2.6070   -5.3851    0.0000 C   0  0  0  0  0  0  0  0  0  0  0  0
    1.3079   -4.6350    0.0000 C   0  0  0  0  0  0  0  0  0  0  0  0
    1.3079   -3.1350    0.0000 C   0  0  0  0  0  0  0  0  0  0  0  0
    2.6070   -2.3851    0.0000 C   0  0  0  0  0  0  0  0  0  0  0  0
    2.6070   -0.8851    0.0000 S   0  0  0  0  0  0  0  0  0  0  0  0
    3.9059   -0.1350    0.0000 C   0  0  0  0  0  0  0  0  0  0  0  0
    3.9059    1.3650    0.0000 C   0  0  0  0  0  0  0  0  0  0  0  0
    5.2051    2.1149    0.0000 C   0  0  0  0  0  0  0  0  0  0  0  0
    6.5040    1.3650    0.0000 C   0  0  0  0  0  0  0  0  0  0  0  0
    6.5040   -0.1350    0.0000 C   0  0  0  0  0  0  0  0  0  0  0  0
    5.2051   -0.8851    0.0000 C   0  0  0  0  0  0  0  0  0  0  0  0
    9.1021   -3.1350    0.0000 C   0  0  0  0  0  0  0  0  0  0  0  0
  1  2  1  0  0  0  0
  3  2  1  0  0  0  0
  2 22  1  0  0  0  0
  4  3  1  0  0  0  0
  5  4  1  0  0  0  0
  6  5  1  0  0  0  0
  6  7  1  0  0  0  0
 22  6  1  0  0  0  0
  7  8  1  0  0  0  0
  9  8  1  0  0  0  0
  8 21  1  0  0  0  0
 10  9  2  0  0  0  0
  9 14  1  0  0  0  0
 11 10  1  0  0  0  0
 12 11  2  0  0  0  0
 13 12  1  0  0  0  0
 14 13  2  0  0  0  0
 15 14  1  0  0  0  0
 16 15  1  0  0  0  0
 17 16  2  0  0  0  0
 16 21  1  0  0  0  0
 18 17  1  0  0  0  0
 19 18  2  0  0  0  0
 20 19  1  0  0  0  0
 21 20  2  0  0  0  0
M  END
> <Inchi_key>
MJFJKKXQDNNUJF-UHFFFAOYSA-N

> <Source>
Mulliner

> <ID>
HT1375

> <H_MFHB>
0

> <CAS>


> <Cholestasis>


> <Name>
metixene

> <Class>
0


$$$$