

  -INDIGO-08031710012D

 20 21  0  0  0  0  0  0  0  0999 V2000
    1.8751    6.9976    0.0000 C   0  0  0  0  0  0  0  0  0  0  0  0
    0.5760    6.2476    0.0000 O   0  0  0  0  0  0  0  0  0  0  0  0
    0.5760    4.7476    0.0000 C   0  0  0  0  0  0  0  0  0  0  0  0
    1.8751    3.9976    0.0000 C   0  0  0  0  0  0  0  0  0  0  0  0
    1.8751    2.4976    0.0000 C   0  0  0  0  0  0  0  0  0  0  0  0
    0.5760    1.7476    0.0000 C   0  0  0  0  0  0  0  0  0  0  0  0
   -0.7231    2.4976    0.0000 C   0  0  0  0  0  0  0  0  0  0  0  0
   -2.0221    1.7476    0.0000 O   0  0  0  0  0  0  0  0  0  0  0  0
   -2.0221    0.2476    0.0000 C   0  0  0  0  0  0  0  0  0  0  0  0
   -0.7231    3.9976    0.0000 C   0  0  0  0  0  0  0  0  0  0  0  0
   -2.0221    4.7476    0.0000 O   0  0  0  0  0  0  0  0  0  0  0  0
   -3.3212    3.9976    0.0000 C   0  0  0  0  0  0  0  0  0  0  0  0
    3.1740    1.7476    0.0000 C   0  0  0  0  0  0  0  0  0  0  0  0
    3.1740    0.2476    0.0000 S   0  0  0  0  0  0  0  0  0  0  0  0
    4.4731    2.4976    0.0000 N   0  0  0  0  0  0  0  0  0  0  0  0
    5.7721    1.7476    0.0000 C   0  0  0  0  0  0  0  0  0  0  0  0
    7.0712    2.4976    0.0000 C   0  0  0  0  0  0  0  0  0  0  0  0
    7.0712    3.9976    0.0000 O   0  0  0  0  0  0  0  0  0  0  0  0
    5.7721    4.7476    0.0000 C   0  0  0  0  0  0  0  0  0  0  0  0
    4.4731    3.9976    0.0000 C   0  0  0  0  0  0  0  0  0  0  0  0
  1  2  1  0  0  0  0
  2  3  1  0  0  0  0
  4  3  2  0  0  0  0
  3 10  1  0  0  0  0
  5  4  1  0  0  0  0
  6  5  2  0  0  0  0
  5 13  1  0  0  0  0
  7  6  1  0  0  0  0
  7  8  1  0  0  0  0
 10  7  2  0  0  0  0
  8  9  1  0  0  0  0
 10 11  1  0  0  0  0
 11 12  1  0  0  0  0
 13 14  2  0  0  0  0
 13 15  1  0  0  0  0
 16 15  1  0  0  0  0
 15 20  1  0  0  0  0
 17 16  1  0  0  0  0
 18 17  1  0  0  0  0
 19 18  1  0  0  0  0
 20 19  1  0  0  0  0
M  END
> <Inchi_key>
MVOUIYUWRXPNKD-UHFFFAOYSA-N

> <Source>
Mulliner

> <ID>
HT2135

> <H_MFHB>
0

> <CAS>


> <Cholestasis>


> <Name>
tritiozine

> <Class>
0


$$$$