
  -INDIGO-08031710012D

 31 35  0  0  0  0  0  0  0  0999 V2000
   -0.0018    2.9955    0.0000 C   0  0  0  0  0  0  0  0  0  0  0  0
    1.3397    2.3244    0.0000 C   0  0  0  0  0  0  0  0  0  0  0  0
    0.1252    1.4443    0.0000 C   0  0  0  0  0  0  0  0  0  0  0  0
    2.0971    3.6192    0.0000 O   0  0  0  0  0  0  0  0  0  0  0  0
    3.5624    3.2991    0.0000 C   0  0  0  0  0  0  0  0  0  0  0  0
    4.9362    3.9014    0.0000 C   0  0  0  0  0  0  0  0  0  0  0  0
    5.9335    2.7811    0.0000 C   0  0  0  0  0  0  0  0  0  0  0  0
    7.4336    2.7726    0.0000 C   0  0  0  0  0  0  0  0  0  0  0  0
    8.1908    4.0674    0.0000 C   0  0  0  0  0  0  0  0  0  0  0  0
    9.6909    4.0589    0.0000 C   0  0  0  0  0  0  0  0  0  0  0  0
   10.4334    2.7556    0.0000 C   0  0  0  0  0  0  0  0  0  0  0  0
   11.9335    2.7472    0.0000 C   0  0  0  0  0  0  0  0  0  0  0  0
   12.6762    1.4439    0.0000 C   0  0  0  0  0  0  0  0  0  0  0  0
   14.1761    1.4354    0.0000 O   0  0  0  0  0  0  0  0  0  0  0  0
   11.9188    0.1491    0.0000 C   0  0  0  0  0  0  0  0  0  0  0  0
   10.4189    0.1576    0.0000 C   0  0  0  0  0  0  0  0  0  0  0  0
    9.6762    1.4609    0.0000 C   0  0  0  0  0  0  0  0  0  0  0  0
    8.9188    0.1661    0.0000 C   0  0  0  0  0  0  0  0  0  0  0  0
    8.1761    1.4693    0.0000 C   0  0  0  0  0  0  0  0  0  0  0  0
    6.6762    1.4778    0.0000 F   0  0  0  0  0  0  0  0  0  0  0  0
    7.4189    0.1745    0.0000 C   0  0  0  0  0  0  0  0  0  0  0  0
    8.1616   -1.1287    0.0000 O   0  0  0  0  0  0  0  0  0  0  0  0
    5.9188    0.1830    0.0000 C   0  0  0  0  0  0  0  0  0  0  0  0
    5.1763    1.4863    0.0000 C   0  0  0  0  0  0  0  0  0  0  0  0
    4.5347    0.1304    0.0000 C   0  0  0  0  0  0  0  0  0  0  0  0
    3.7108    1.8064    0.0000 C   0  0  0  0  0  0  0  0  0  0  0  0
    2.3371    1.2041    0.0000 O   0  0  0  0  0  0  0  0  0  0  0  0
    3.3145    0.3597    0.0000 C   0  0  0  0  0  0  0  0  0  0  0  0
    4.3692   -0.7069    0.0000 O   0  0  0  0  0  0  0  0  0  0  0  0
    1.8635   -0.0203    0.0000 C   0  0  0  0  0  0  0  0  0  0  0  0
    1.4669   -1.4670    0.0000 Cl  0  0  0  0  0  0  0  0  0  0  0  0
  1  2  1  0  0  0  0
  2  3  1  0  0  0  0
  4  2  1  0  0  0  0
  2 27  1  0  0  0  0
  5  4  1  0  0  0  0
  6  5  1  0  0  0  0
  5 26  1  0  0  0  0
  7  6  1  0  0  0  0
  8  7  1  0  0  0  0
  7 24  1  0  0  0  0
  9  8  1  0  0  0  0
  8 19  1  0  0  0  0
 10  9  1  0  0  0  0
 11 10  1  0  0  0  0
 12 11  2  0  0  0  0
 11 17  1  0  0  0  0
 13 12  1  0  0  0  0
 13 14  2  0  0  0  0
 15 13  1  0  0  0  0
 16 15  1  0  0  0  0
 17 16  1  0  0  0  0
 17 18  1  0  0  0  0
 19 17  1  0  0  0  0
 19 20  1  0  0  0  0
 21 19  1  0  0  0  0
 21 22  1  0  0  0  0
 23 21  1  0  0  0  0
 24 23  1  0  0  0  0
 24 25  1  0  0  0  0
 26 24  1  0  0  0  0
 27 26  1  0  0  0  0
 26 28  1  0  0  0  0
 28 29  2  0  0  0  0
 28 30  1  0  0  0  0
 30 31  1  0  0  0  0
M  END
> <Inchi_key>
MUQNGPZZQDCDFT-UHFFFAOYSA-N

> <Source>
Mulliner , Kotsampasakou

> <ID>
EK0255;HT1014

> <H_MFHB>
0

> <CAS>


> <Cholestasis>
0

> <Name>
halcinonide

> <Class>
0

$$$$