

  -INDIGO-08031710012D

 21 22  0  0  0  0  0  0  0  0999 V2000
    4.3647   -4.5993    0.0000 C   0  0  0  0  0  0  0  0  0  0  0  0
    4.4431   -3.1014    0.0000 N   0  0  0  0  0  0  0  0  0  0  0  0
    5.7797   -2.4204    0.0000 C   0  0  0  0  0  0  0  0  0  0  0  0
    7.0376   -3.2373    0.0000 S   0  0  0  0  0  0  0  0  0  0  0  0
    6.2206   -4.4953    0.0000 O   0  0  0  0  0  0  0  0  0  0  0  0
    7.8546   -1.9793    0.0000 O   0  0  0  0  0  0  0  0  0  0  0  0
    8.2956   -4.0543    0.0000 O   0  0  0  0  0  0  0  0  0  0  0  0
    3.1850   -2.2844    0.0000 C   0  0  0  0  0  0  0  0  0  0  0  0
    3.1066   -0.7865    0.0000 C   0  0  0  0  0  0  0  0  0  0  0  0
    4.2722    0.1575    0.0000 C   0  0  0  0  0  0  0  0  0  0  0  0
    1.6577   -0.3982    0.0000 N   0  0  0  0  0  0  0  0  0  0  0  0
    1.1202    1.0021    0.0000 C   0  0  0  0  0  0  0  0  0  0  0  0
    0.8407   -1.6562    0.0000 N   0  0  0  0  0  0  0  0  0  0  0  0
    1.7848   -2.8219    0.0000 C   0  0  0  0  0  0  0  0  0  0  0  0
    1.3966   -4.2708    0.0000 O   0  0  0  0  0  0  0  0  0  0  0  0
   -0.6571   -1.7347    0.0000 C   0  0  0  0  0  0  0  0  0  0  0  0
   -1.4741   -0.4767    0.0000 C   0  0  0  0  0  0  0  0  0  0  0  0
   -2.9721   -0.5552    0.0000 C   0  0  0  0  0  0  0  0  0  0  0  0
   -3.6531   -1.8917    0.0000 C   0  0  0  0  0  0  0  0  0  0  0  0
   -2.8363   -3.1497    0.0000 C   0  0  0  0  0  0  0  0  0  0  0  0
   -1.3381   -3.0712    0.0000 C   0  0  0  0  0  0  0  0  0  0  0  0
  1  2  1  0  0  0  0
  2  3  1  0  0  0  0
  2  8  1  0  0  0  0
  3  4  1  0  0  0  0
  4  5  2  0  0  0  0
  4  6  2  0  0  0  0
  4  7  1  0  0  0  0
  9  8  2  0  0  0  0
  8 14  1  0  0  0  0
  9 10  1  0  0  0  0
 11  9  1  0  0  0  0
 11 12  1  0  0  0  0
 13 11  1  0  0  0  0
 14 13  1  0  0  0  0
 13 16  1  0  0  0  0
 14 15  2  0  0  0  0
 17 16  2  0  0  0  0
 16 21  1  0  0  0  0
 18 17  1  0  0  0  0
 19 18  2  0  0  0  0
 20 19  1  0  0  0  0
 21 20  2  0  0  0  0
M  END
> <Inchi_key>
LVWZTYCIRDMTEY-UHFFFAOYSA-N

> <Source>
Mulliner

> <ID>
HT1322

> <H_MFHB>
0

> <CAS>
68-89-3;85886-25-5

> <Cholestasis>


> <Name>
metamizole;dipyrone

> <Class>
0


$$$$