
  -INDIGO-08031710012D

 41 46  0  0  0  0  0  0  0  0999 V2000
    6.1855  -10.7556    0.0000 C   0  0  0  0  0  0  0  0  0  0  0  0
    6.9398   -9.4591    0.0000 C   0  0  0  0  0  0  0  0  0  0  0  0
    6.1943   -8.1575    0.0000 O   0  0  0  0  0  0  0  0  0  0  0  0
    6.9488   -6.8611    0.0000 C   0  0  0  0  0  0  0  0  0  0  0  0
    6.2030   -5.5596    0.0000 O   0  0  0  0  0  0  0  0  0  0  0  0
    4.7032   -5.5544    0.0000 C   0  0  0  0  0  0  0  0  0  0  0  0
    3.9487   -6.8509    0.0000 C   0  0  0  0  0  0  0  0  0  0  0  0
    2.4486   -6.8458    0.0000 C   0  0  0  0  0  0  0  0  0  0  0  0
    1.4805   -7.9916    0.0000 O   0  0  0  0  0  0  0  0  0  0  0  0
    1.7031   -5.5442    0.0000 C   0  0  0  0  0  0  0  0  0  0  0  0
    1.2236   -8.5056    0.0000 C   0  0  0  0  0  0  0  0  0  0  0  0
    2.3861   -9.4536    0.0000 O   0  0  0  0  0  0  0  0  0  0  0  0
    0.2030   -5.5391    0.0000 C   0  0  0  0  0  0  0  0  0  0  0  0
   -0.5513   -6.8356    0.0000 C   0  0  0  0  0  0  0  0  0  0  0  0
    0.1942   -8.1372    0.0000 O   0  0  0  0  0  0  0  0  0  0  0  0
   -2.0514   -6.8305    0.0000 C   0  0  0  0  0  0  0  0  0  0  0  0
   -2.7969   -5.5289    0.0000 C   0  0  0  0  0  0  0  0  0  0  0  0
   -3.6399   -6.7696    0.0000 C   0  0  0  0  0  0  0  0  0  0  0  0
   -4.2631   -5.2121    0.0000 C   0  0  0  0  0  0  0  0  0  0  0  0
   -4.4147   -3.7196    0.0000 C   0  0  0  0  0  0  0  0  0  0  0  0
   -3.0423   -3.1143    0.0000 C   0  0  0  0  0  0  0  0  0  0  0  0
   -2.0426   -4.2324    0.0000 C   0  0  0  0  0  0  0  0  0  0  0  0
   -1.4278   -2.8642    0.0000 O   0  0  0  0  0  0  0  0  0  0  0  0
   -0.5425   -4.2375    0.0000 C   0  0  0  0  0  0  0  0  0  0  0  0
    0.2118   -2.9410    0.0000 C   0  0  0  0  0  0  0  0  0  0  0  0
    1.7118   -2.9461    0.0000 C   0  0  0  0  0  0  0  0  0  0  0  0
    2.4576   -4.2477    0.0000 C   0  0  0  0  0  0  0  0  0  0  0  0
    3.1893   -2.9384    0.0000 O   0  0  0  0  0  0  0  0  0  0  0  0
    3.9574   -4.2528    0.0000 C   0  0  0  0  0  0  0  0  0  0  0  0
   -5.3812   -6.2120    0.0000 C   0  0  0  0  0  0  0  0  0  0  0  0
   -5.2294   -7.7043    0.0000 C   0  0  0  0  0  0  0  0  0  0  0  0
   -6.6017   -8.3097    0.0000 O   0  0  0  0  0  0  0  0  0  0  0  0
   -7.6018   -7.1916    0.0000 C   0  0  0  0  0  0  0  0  0  0  0  0
   -9.0940   -7.3433    0.0000 O   0  0  0  0  0  0  0  0  0  0  0  0
   -6.8472   -5.8951    0.0000 C   0  0  0  0  0  0  0  0  0  0  0  0
    8.4486   -6.8662    0.0000 C   0  0  0  0  0  0  0  0  0  0  0  0
    9.2032   -5.5697    0.0000 O   0  0  0  0  0  0  0  0  0  0  0  0
    9.1941   -8.1677    0.0000 C   0  0  0  0  0  0  0  0  0  0  0  0
   10.6942   -8.1728    0.0000 O   0  0  0  0  0  0  0  0  0  0  0  0
    8.4399   -9.4642    0.0000 C   0  0  0  0  0  0  0  0  0  0  0  0
    9.1854  -10.7658    0.0000 O   0  0  0  0  0  0  0  0  0  0  0  0
  1  2  1  0  0  0  0
  3  2  1  0  0  0  0
  2 40  1  0  0  0  0
  4  3  1  0  0  0  0
  4  5  1  0  0  0  0
 36  4  1  0  0  0  0
  5  6  1  0  0  0  0
  7  6  1  0  0  0  0
  6 29  1  0  0  0  0
  8  7  1  0  0  0  0
  8  9  1  0  0  0  0
 10  8  1  0  0  0  0
 10 11  1  0  0  0  0
 13 10  1  0  0  0  0
 10 27  1  0  0  0  0
 11 12  1  0  0  0  0
 14 13  1  0  0  0  0
 13 24  1  0  0  0  0
 14 15  1  0  0  0  0
 16 14  1  0  0  0  0
 17 16  1  0  0  0  0
 17 18  1  0  0  0  0
 19 17  1  0  0  0  0
 17 22  1  0  0  0  0
 20 19  1  0  0  0  0
 19 30  1  0  0  0  0
 21 20  1  0  0  0  0
 22 21  1  0  0  0  0
 22 23  1  0  0  0  0
 24 22  1  0  0  0  0
 25 24  1  0  0  0  0
 26 25  1  0  0  0  0
 27 26  1  0  0  0  0
 27 28  1  0  0  0  0
 29 27  1  0  0  0  0
 31 30  1  0  0  0  0
 30 35  2  0  0  0  0
 32 31  1  0  0  0  0
 33 32  1  0  0  0  0
 33 34  2  0  0  0  0
 35 33  1  0  0  0  0
 36 37  1  0  0  0  0
 38 36  1  0  0  0  0
 38 39  1  0  0  0  0
 40 38  1  0  0  0  0
 40 41  1  0  0  0  0
M  END
> <Inchi_key>
LPMXVESGRSUGHW-UHFFFAOYSA-N

> <Source>
Mulliner

> <ID>
HT1548

> <H_MFHB>
0

> <CAS>


> <Cholestasis>


> <Name>
ouabain

> <Class>
0

$$$$