

  -INDIGO-08031709442D

 12 12  0  0  0  0  0  0  0  0999 V2000
   -0.3750   -0.2165    0.0000 O   0  0  0  0  0  0  0  0  0  0  0  0
    0.3750    1.0825    0.0000 C   0  0  0  0  0  0  0  0  0  0  0  0
    1.8750    1.0825    0.0000 C   0  0  0  0  0  0  0  0  0  0  0  0
    2.6250   -0.2165    0.0000 O   0  0  0  0  0  0  0  0  0  0  0  0
   -0.3750    2.3816    0.0000 C   0  0  0  0  0  0  0  0  0  0  0  0
    0.3750    3.6806    0.0000 O   0  0  0  0  0  0  0  0  0  0  0  0
   -1.8750    2.3816    0.0000 C   0  0  0  0  0  0  0  0  0  0  0  0
   -2.6250    3.6806    0.0000 O   0  0  0  0  0  0  0  0  0  0  0  0
   -2.6250    1.0825    0.0000 C   0  0  0  0  0  0  0  0  0  0  0  0
   -4.1250    1.0825    0.0000 N   0  0  0  0  0  0  0  0  0  0  0  0
   -1.8750   -0.2165    0.0000 C   0  0  0  0  0  0  0  0  0  0  0  0
   -2.6250   -1.5155    0.0000 O   0  0  0  0  0  0  0  0  0  0  0  0
  2  1  1  0  0  0  0
  1 11  1  0  0  0  0
  2  3  1  0  0  0  0
  5  2  1  0  0  0  0
  3  4  1  0  0  0  0
  5  6  1  0  0  0  0
  7  5  1  0  0  0  0
  7  8  1  0  0  0  0
  9  7  1  0  0  0  0
  9 10  1  0  0  0  0
 11  9  1  0  0  0  0
 11 12  1  0  0  0  0
M  END
> <Inchi_key>
MSWZFWKMSRAUBD-UHFFFAOYSA-N

> <Source>
Kotsampasakou

> <ID>
EK0245

> <H_MFHB>


> <CAS>


> <Cholestasis>
0

> <Name>
glucosamine

> <Class>
0


$$$$