

  -INDIGO-08031710012D

 11 10  0  0  0  0  0  0  0  0999 V2000
   -0.1471   -0.5490    0.0000 C   0  0  0  0  0  0  0  0  0  0  0  0
    1.1519   -1.2990    0.0000 C   0  0  0  0  0  0  0  0  0  0  0  0
    1.1519   -2.7990    0.0000 C   0  0  0  0  0  0  0  0  0  0  0  0
    2.4510   -0.5490    0.0000 O   0  0  0  0  0  0  0  0  0  0  0  0
    3.7501   -1.2990    0.0000 P   0  0  0  0  0  0  0  0  0  0  0  0
    4.5000    0.0000    0.0000 O   0  0  0  0  0  0  0  0  0  0  0  0
    3.0000   -2.5981    0.0000 F   0  0  0  0  0  0  0  0  0  0  0  0
    5.0490   -2.0490    0.0000 O   0  0  0  0  0  0  0  0  0  0  0  0
    6.3481   -1.2990    0.0000 C   0  0  0  0  0  0  0  0  0  0  0  0
    7.6471   -2.0490    0.0000 C   0  0  0  0  0  0  0  0  0  0  0  0
    6.3481    0.2010    0.0000 C   0  0  0  0  0  0  0  0  0  0  0  0
  1  2  1  0  0  0  0
  2  3  1  0  0  0  0
  2  4  1  0  0  0  0
  4  5  1  0  0  0  0
  5  6  2  0  0  0  0
  5  7  1  0  0  0  0
  5  8  1  0  0  0  0
  8  9  1  0  0  0  0
  9 10  1  0  0  0  0
  9 11  1  0  0  0  0
M  END
> <Inchi_key>
MUCZHBLJLSDCSD-UHFFFAOYSA-N

> <Source>
Mulliner

> <ID>
HT1133

> <H_MFHB>
0

> <CAS>


> <Cholestasis>


> <Name>
isoflurophate

> <Class>
0


$$$$