
  -INDIGO-08031710012D

 21 22  0  0  0  0  0  0  0  0999 V2000
   14.8229    3.9718    0.0000 C   0  0  0  0  0  0  0  0  0  0  0  0
   13.5238    3.2218    0.0000 C   0  0  0  0  0  0  0  0  0  0  0  0
   14.2739    1.9228    0.0000 C   0  0  0  0  0  0  0  0  0  0  0  0
   12.7740    4.5208    0.0000 C   0  0  0  0  0  0  0  0  0  0  0  0
   12.2249    2.4718    0.0000 N   0  0  0  0  0  0  0  0  0  0  0  0
   10.9258    3.2218    0.0000 C   0  0  0  0  0  0  0  0  0  0  0  0
    9.6267    2.4718    0.0000 C   0  0  0  0  0  0  0  0  0  0  0  0
    9.6267    0.9718    0.0000 O   0  0  0  0  0  0  0  0  0  0  0  0
    8.3276    3.2218    0.0000 C   0  0  0  0  0  0  0  0  0  0  0  0
    7.0288    2.4718    0.0000 O   0  0  0  0  0  0  0  0  0  0  0  0
    5.7297    3.2218    0.0000 C   0  0  0  0  0  0  0  0  0  0  0  0
    5.7297    4.7218    0.0000 C   0  0  0  0  0  0  0  0  0  0  0  0
    4.4306    5.4718    0.0000 C   0  0  0  0  0  0  0  0  0  0  0  0
    3.1317    4.7218    0.0000 C   0  0  0  0  0  0  0  0  0  0  0  0
    3.1317    3.2218    0.0000 C   0  0  0  0  0  0  0  0  0  0  0  0
    1.8326    2.4718    0.0000 N   0  0  0  0  0  0  0  0  0  0  0  0
    1.8326    0.9718    0.0000 C   0  0  0  0  0  0  0  0  0  0  0  0
    0.5335    0.2218    0.0000 O   0  0  0  0  0  0  0  0  0  0  0  0
    3.1317    0.2218    0.0000 C   0  0  0  0  0  0  0  0  0  0  0  0
    4.4306    0.9718    0.0000 C   0  0  0  0  0  0  0  0  0  0  0  0
    4.4306    2.4718    0.0000 C   0  0  0  0  0  0  0  0  0  0  0  0
  1  2  1  0  0  0  0
  2  3  1  0  0  0  0
  2  4  1  0  0  0  0
  2  5  1  0  0  0  0
  5  6  1  0  0  0  0
  6  7  1  0  0  0  0
  7  8  1  0  0  0  0
  7  9  1  0  0  0  0
  9 10  1  0  0  0  0
 10 11  1  0  0  0  0
 12 11  2  0  0  0  0
 11 21  1  0  0  0  0
 13 12  1  0  0  0  0
 14 13  2  0  0  0  0
 15 14  1  0  0  0  0
 16 15  1  0  0  0  0
 15 21  2  0  0  0  0
 17 16  1  0  0  0  0
 17 18  2  0  0  0  0
 19 17  1  0  0  0  0
 20 19  1  0  0  0  0
 21 20  1  0  0  0  0
M  END
> <Inchi_key>
LWAFSWPYPHEXKX-UHFFFAOYSA-N

> <Source>
Mulliner , Kotsampasakou

> <ID>
EK0097;HT0389

> <H_MFHB>
0

> <CAS>
51781-21-6

> <Cholestasis>
0

> <Name>
carteolol hydrochloride;carteolol

> <Class>
0

$$$$