
  -INDIGO-08031710012D

 45 48  0  0  0  0  0  0  0  0999 V2000
   -0.0001    2.2022    0.0000 C   0  0  0  0  0  0  0  0  0  0  0  0
    1.5001    2.2022    0.0000 O   0  0  0  0  0  0  0  0  0  0  0  0
    2.2501    3.5013    0.0000 C   0  0  0  0  0  0  0  0  0  0  0  0
    3.7499    3.5013    0.0000 C   0  0  0  0  0  0  0  0  0  0  0  0
    4.4999    2.2022    0.0000 C   0  0  0  0  0  0  0  0  0  0  0  0
    6.0001    2.2022    0.0000 C   0  0  0  0  0  0  0  0  0  0  0  0
    6.7500    3.5013    0.0000 C   0  0  0  0  0  0  0  0  0  0  0  0
    8.2499    3.5013    0.0000 C   0  0  0  0  0  0  0  0  0  0  0  0
    6.0001    4.8004    0.0000 N   0  0  0  0  0  0  0  0  0  0  0  0
    4.4999    4.8004    0.0000 C   0  0  0  0  0  0  0  0  0  0  0  0
    3.7499    6.0993    0.0000 C   0  0  0  0  0  0  0  0  0  0  0  0
    6.7500    0.9032    0.0000 C   0  0  0  0  0  0  0  0  0  0  0  0
    6.0001   -0.3959    0.0000 O   0  0  0  0  0  0  0  0  0  0  0  0
    8.2499    0.9032    0.0000 O   0  0  0  0  0  0  0  0  0  0  0  0
    9.0001   -0.3959    0.0000 C   0  0  0  0  0  0  0  0  0  0  0  0
    9.7501   -1.6949    0.0000 C   0  0  0  0  0  0  0  0  0  0  0  0
    7.7009   -1.1459    0.0000 C   0  0  0  0  0  0  0  0  0  0  0  0
   10.2990    0.3540    0.0000 C   0  0  0  0  0  0  0  0  0  0  0  0
   11.5982   -0.3959    0.0000 N   0  0  0  0  0  0  0  0  0  0  0  0
   11.5982   -1.8959    0.0000 C   0  0  0  0  0  0  0  0  0  0  0  0
   12.8970    0.3540    0.0000 C   0  0  0  0  0  0  0  0  0  0  0  0
   14.1962   -0.3959    0.0000 C   0  0  0  0  0  0  0  0  0  0  0  0
   15.4951    0.3540    0.0000 C   0  0  0  0  0  0  0  0  0  0  0  0
   15.4951    1.8541    0.0000 C   0  0  0  0  0  0  0  0  0  0  0  0
   16.7943    2.6042    0.0000 C   0  0  0  0  0  0  0  0  0  0  0  0
   16.7943    4.1041    0.0000 C   0  0  0  0  0  0  0  0  0  0  0  0
   15.4951    4.8541    0.0000 C   0  0  0  0  0  0  0  0  0  0  0  0
   14.1962    4.1041    0.0000 C   0  0  0  0  0  0  0  0  0  0  0  0
   14.1962    2.6042    0.0000 C   0  0  0  0  0  0  0  0  0  0  0  0
   16.7943   -0.3959    0.0000 C   0  0  0  0  0  0  0  0  0  0  0  0
   16.7943   -1.8959    0.0000 C   0  0  0  0  0  0  0  0  0  0  0  0
   18.0934   -2.6459    0.0000 C   0  0  0  0  0  0  0  0  0  0  0  0
   19.3923   -1.8959    0.0000 C   0  0  0  0  0  0  0  0  0  0  0  0
   19.3923   -0.3959    0.0000 C   0  0  0  0  0  0  0  0  0  0  0  0
   18.0934    0.3540    0.0000 C   0  0  0  0  0  0  0  0  0  0  0  0
    3.7499    0.9032    0.0000 C   0  0  0  0  0  0  0  0  0  0  0  0
    4.4999   -0.3959    0.0000 C   0  0  0  0  0  0  0  0  0  0  0  0
    3.7499   -1.6949    0.0000 C   0  0  0  0  0  0  0  0  0  0  0  0
    2.2501   -1.6949    0.0000 C   0  0  0  0  0  0  0  0  0  0  0  0
    1.5001   -0.3959    0.0000 C   0  0  0  0  0  0  0  0  0  0  0  0
    2.2501    0.9032    0.0000 C   0  0  0  0  0  0  0  0  0  0  0  0
   -0.0001   -0.3959    0.0000 N   0  0  0  0  0  0  0  0  0  0  0  0
   -0.7500    0.9032    0.0000 O   0  0  0  0  0  0  0  0  0  0  0  0
   -0.7500   -1.6949    0.0000 O   0  0  0  0  0  0  0  0  0  0  0  0
    1.5001    4.8004    0.0000 O   0  0  0  0  0  0  0  0  0  0  0  0
  1  2  1  0  0  0  0
  2  3  1  0  0  0  0
  3  4  2  0  0  0  0
  3 45  1  0  0  0  0
  5  4  1  0  0  0  0
  4 10  1  0  0  0  0
  6  5  1  0  0  0  0
  5 36  1  0  0  0  0
  7  6  2  0  0  0  0
  6 12  1  0  0  0  0
  7  8  1  0  0  0  0
  9  7  1  0  0  0  0
 10  9  2  0  0  0  0
 10 11  1  0  0  0  0
 12 13  2  0  0  0  0
 12 14  1  0  0  0  0
 14 15  1  0  0  0  0
 15 16  1  0  0  0  0
 15 17  1  0  0  0  0
 15 18  1  0  0  0  0
 18 19  1  0  0  0  0
 19 20  1  0  0  0  0
 19 21  1  0  0  0  0
 21 22  1  0  0  0  0
 22 23  1  0  0  0  0
 23 24  1  0  0  0  0
 23 30  1  0  0  0  0
 25 24  2  0  0  0  0
 24 29  1  0  0  0  0
 26 25  1  0  0  0  0
 27 26  2  0  0  0  0
 28 27  1  0  0  0  0
 29 28  2  0  0  0  0
 31 30  2  0  0  0  0
 30 35  1  0  0  0  0
 32 31  1  0  0  0  0
 33 32  2  0  0  0  0
 34 33  1  0  0  0  0
 35 34  2  0  0  0  0
 37 36  2  0  0  0  0
 36 41  1  0  0  0  0
 38 37  1  0  0  0  0
 39 38  2  0  0  0  0
 40 39  1  0  0  0  0
 41 40  2  0  0  0  0
 40 42  1  0  0  0  0
 42 43  2  0  0  0  0
 42 44  1  0  0  0  0
M  CHG  2  42   1  44  -1
M  END
> <Inchi_key>
MNKGGUKXFHYTJT-NMSHJFGGSA-N

> <Source>
Mulliner

> <ID>
HT1185

> <H_MFHB>
0

> <CAS>


> <Cholestasis>


> <Name>
lercanidipine

> <Class>
0

$$$$