
  -INDIGO-08031710012D

 30 32  0  0  0  0  0  0  0  0999 V2000
   -0.4005    1.8764    0.0000 O   0  0  0  0  0  0  0  0  0  0  0  0
    0.8983    1.1264    0.0000 C   0  0  0  0  0  0  0  0  0  0  0  0
    1.6483    2.4255    0.0000 C   0  0  0  0  0  0  0  0  0  0  0  0
    3.1485    2.4255    0.0000 C   0  0  0  0  0  0  0  0  0  0  0  0
    3.8984    1.1264    0.0000 N   0  0  0  0  0  0  0  0  0  0  0  0
    5.3983    1.1264    0.0000 C   0  0  0  0  0  0  0  0  0  0  0  0
    6.1483    2.4255    0.0000 C   0  0  0  0  0  0  0  0  0  0  0  0
    7.6485    2.4255    0.0000 C   0  0  0  0  0  0  0  0  0  0  0  0
    8.3985    3.7245    0.0000 C   0  0  0  0  0  0  0  0  0  0  0  0
    7.6485    5.0236    0.0000 O   0  0  0  0  0  0  0  0  0  0  0  0
    9.8984    3.7245    0.0000 C   0  0  0  0  0  0  0  0  0  0  0  0
   10.6483    5.0236    0.0000 C   0  0  0  0  0  0  0  0  0  0  0  0
   12.1485    5.0236    0.0000 C   0  0  0  0  0  0  0  0  0  0  0  0
   12.8985    3.7245    0.0000 C   0  0  0  0  0  0  0  0  0  0  0  0
   14.3984    3.7245    0.0000 F   0  0  0  0  0  0  0  0  0  0  0  0
   12.1485    2.4255    0.0000 C   0  0  0  0  0  0  0  0  0  0  0  0
   10.6483    2.4255    0.0000 C   0  0  0  0  0  0  0  0  0  0  0  0
    3.1485   -0.1726    0.0000 C   0  0  0  0  0  0  0  0  0  0  0  0
    1.6483   -0.1726    0.0000 C   0  0  0  0  0  0  0  0  0  0  0  0
   -0.4005    0.3764    0.0000 C   0  0  0  0  0  0  0  0  0  0  0  0
   -0.4005   -1.1236    0.0000 C   0  0  0  0  0  0  0  0  0  0  0  0
   -1.6997   -1.8736    0.0000 C   0  0  0  0  0  0  0  0  0  0  0  0
   -2.9988   -1.1236    0.0000 C   0  0  0  0  0  0  0  0  0  0  0  0
   -4.2977   -1.8736    0.0000 Cl  0  0  0  0  0  0  0  0  0  0  0  0
   -2.9988    0.3764    0.0000 C   0  0  0  0  0  0  0  0  0  0  0  0
   -1.6997    1.1264    0.0000 C   0  0  0  0  0  0  0  0  0  0  0  0
   -4.2977    1.1264    0.0000 C   0  0  0  0  0  0  0  0  0  0  0  0
   -5.0476   -0.1726    0.0000 F   0  0  0  0  0  0  0  0  0  0  0  0
   -3.5477    2.4255    0.0000 F   0  0  0  0  0  0  0  0  0  0  0  0
   -5.5968    1.8764    0.0000 F   0  0  0  0  0  0  0  0  0  0  0  0
  1  2  1  0  0  0  0
  3  2  1  0  0  0  0
  2 19  1  0  0  0  0
  2 20  1  0  0  0  0
  4  3  1  0  0  0  0
  5  4  1  0  0  0  0
  5  6  1  0  0  0  0
 18  5  1  0  0  0  0
  6  7  1  0  0  0  0
  7  8  1  0  0  0  0
  8  9  1  0  0  0  0
  9 10  2  0  0  0  0
  9 11  1  0  0  0  0
 12 11  2  0  0  0  0
 11 17  1  0  0  0  0
 13 12  1  0  0  0  0
 14 13  2  0  0  0  0
 14 15  1  0  0  0  0
 16 14  1  0  0  0  0
 17 16  2  0  0  0  0
 19 18  1  0  0  0  0
 21 20  2  0  0  0  0
 20 26  1  0  0  0  0
 22 21  1  0  0  0  0
 23 22  2  0  0  0  0
 23 24  1  0  0  0  0
 25 23  1  0  0  0  0
 26 25  2  0  0  0  0
 25 27  1  0  0  0  0
 27 28  1  0  0  0  0
 27 29  1  0  0  0  0
 27 30  1  0  0  0  0
M  END
> <Inchi_key>
LZFSKNPPWIFMFL-UHFFFAOYSA-N

> <Source>
Mulliner

> <ID>
HT3830

> <H_MFHB>
0

> <CAS>


> <Cholestasis>


> <Name>


> <Class>
0

$$$$