
  -INDIGO-08031710012D

 29 32  0  0  0  0  0  0  0  0999 V2000
   -2.2154    4.0499    0.0000 O   0  0  0  0  0  0  0  0  0  0  0  0
   -3.5146    4.8000    0.0000 C   0  0  0  0  0  0  0  0  0  0  0  0
   -3.5146    6.2999    0.0000 O   0  0  0  0  0  0  0  0  0  0  0  0
   -4.8135    4.0499    0.0000 C   0  0  0  0  0  0  0  0  0  0  0  0
   -4.8135    2.5499    0.0000 C   0  0  0  0  0  0  0  0  0  0  0  0
   -3.5146    1.7999    0.0000 N   0  0  0  0  0  0  0  0  0  0  0  0
   -3.5146    0.2999    0.0000 N   0  0  0  0  0  0  0  0  0  0  0  0
   -2.2154   -0.4502    0.0000 C   0  0  0  0  0  0  0  0  0  0  0  0
   -0.9165    0.2999    0.0000 C   0  0  0  0  0  0  0  0  0  0  0  0
    0.4539   -0.3102    0.0000 N   0  0  0  0  0  0  0  0  0  0  0  0
    1.4576    0.8046    0.0000 C   0  0  0  0  0  0  0  0  0  0  0  0
    2.9577    0.8046    0.0000 C   0  0  0  0  0  0  0  0  0  0  0  0
    3.7077    2.1036    0.0000 C   0  0  0  0  0  0  0  0  0  0  0  0
    2.9577    3.4026    0.0000 C   0  0  0  0  0  0  0  0  0  0  0  0
    1.4576    3.4026    0.0000 C   0  0  0  0  0  0  0  0  0  0  0  0
    0.7076    2.1036    0.0000 C   0  0  0  0  0  0  0  0  0  0  0  0
   -0.7596    1.7916    0.0000 S   0  0  0  0  0  0  0  0  0  0  0  0
    5.2075    2.1036    0.0000 C   0  0  0  0  0  0  0  0  0  0  0  0
    6.7076    2.1036    0.0000 F   0  0  0  0  0  0  0  0  0  0  0  0
    5.2075    3.6037    0.0000 F   0  0  0  0  0  0  0  0  0  0  0  0
    5.2075    0.6036    0.0000 F   0  0  0  0  0  0  0  0  0  0  0  0
   -4.8135   -0.4502    0.0000 C   0  0  0  0  0  0  0  0  0  0  0  0
   -4.8135   -1.9501    0.0000 O   0  0  0  0  0  0  0  0  0  0  0  0
   -6.1126    0.2999    0.0000 C   0  0  0  0  0  0  0  0  0  0  0  0
   -7.4115   -0.4502    0.0000 C   0  0  0  0  0  0  0  0  0  0  0  0
   -8.7107    0.2999    0.0000 C   0  0  0  0  0  0  0  0  0  0  0  0
   -8.7107    1.7999    0.0000 C   0  0  0  0  0  0  0  0  0  0  0  0
   -7.4115    2.5499    0.0000 C   0  0  0  0  0  0  0  0  0  0  0  0
   -6.1126    1.7999    0.0000 C   0  0  0  0  0  0  0  0  0  0  0  0
  1  2  1  0  0  0  0
  2  3  2  0  0  0  0
  2  4  1  0  0  0  0
  4  5  1  0  0  0  0
  6  5  2  0  0  0  0
  5 29  1  0  0  0  0
  7  6  1  0  0  0  0
  7  8  1  0  0  0  0
 22  7  1  0  0  0  0
  8  9  1  0  0  0  0
 10  9  2  0  0  0  0
  9 17  1  0  0  0  0
 11 10  1  0  0  0  0
 12 11  2  0  0  0  0
 11 16  1  0  0  0  0
 13 12  1  0  0  0  0
 14 13  2  0  0  0  0
 13 18  1  0  0  0  0
 15 14  1  0  0  0  0
 16 15  2  0  0  0  0
 17 16  1  0  0  0  0
 18 19  1  0  0  0  0
 18 20  1  0  0  0  0
 18 21  1  0  0  0  0
 22 23  2  0  0  0  0
 24 22  1  0  0  0  0
 25 24  1  0  0  0  0
 24 29  2  0  0  0  0
 26 25  2  0  0  0  0
 27 26  1  0  0  0  0
 28 27  2  0  0  0  0
 29 28  1  0  0  0  0
M  END
> <Inchi_key>
BCSVCWVQNOXFGL-UHFFFAOYSA-N

> <Source>
Mulliner

> <ID>
HT2223

> <H_MFHB>
0

> <CAS>
110703-94-1

> <Cholestasis>


> <Name>
zopolrestat

> <Class>
0

$$$$