
  -INDIGO-08031710012D

 16 17  0  0  0  0  0  0  0  0999 V2000
   -0.4243    1.5835    0.0000 O   0  0  0  0  0  0  0  0  0  0  0  0
    0.8747    2.3335    0.0000 N   0  0  0  0  0  0  0  0  0  0  0  0
    0.8747    3.8335    0.0000 O   0  0  0  0  0  0  0  0  0  0  0  0
    2.1738    1.5835    0.0000 O   0  0  0  0  0  0  0  0  0  0  0  0
    3.4728    2.3335    0.0000 C   0  0  0  0  0  0  0  0  0  0  0  0
    3.6297    3.8253    0.0000 C   0  0  0  0  0  0  0  0  0  0  0  0
    5.0968    4.1372    0.0000 O   0  0  0  0  0  0  0  0  0  0  0  0
    5.8469    2.8382    0.0000 C   0  0  0  0  0  0  0  0  0  0  0  0
    7.2170    2.2281    0.0000 C   0  0  0  0  0  0  0  0  0  0  0  0
    7.0603    0.7363    0.0000 C   0  0  0  0  0  0  0  0  0  0  0  0
    5.5932    0.4244    0.0000 O   0  0  0  0  0  0  0  0  0  0  0  0
    4.8431    1.7234    0.0000 C   0  0  0  0  0  0  0  0  0  0  0  0
    8.5162    2.9781    0.0000 O   0  0  0  0  0  0  0  0  0  0  0  0
    9.8153    2.2281    0.0000 N   0  0  0  0  0  0  0  0  0  0  0  0
   11.1143    2.9781    0.0000 O   0  0  0  0  0  0  0  0  0  0  0  0
    9.8153    0.7281    0.0000 O   0  0  0  0  0  0  0  0  0  0  0  0
  1  2  1  0  0  0  0
  2  3  2  0  0  0  0
  2  4  1  0  0  0  0
  4  5  1  0  0  0  0
  6  5  1  0  0  0  0
  5 12  1  0  0  0  0
  7  6  1  0  0  0  0
  8  7  1  0  0  0  0
  9  8  1  0  0  0  0
  8 12  1  0  0  0  0
 10  9  1  0  0  0  0
  9 13  1  0  0  0  0
 11 10  1  0  0  0  0
 12 11  1  0  0  0  0
 13 14  1  0  0  0  0
 14 15  2  0  0  0  0
 14 16  1  0  0  0  0
M  CHG  4   1  -1   2   1  14   1  16  -1
M  END
> <Inchi_key>
MOYKHGMNXAOIAT-UHFFFAOYSA-N

> <Source>
Mulliner , Kotsampasakou

> <ID>
EK0283;HT1139

> <H_MFHB>
0

> <CAS>


> <Cholestasis>
0

> <Name>
isosorbide dinitrate

> <Class>
0

$$$$