

  -INDIGO-08031710012D

 14 14  0  0  0  0  0  0  0  0999 V2000
    2.2423   -0.7577    0.0000 C   0  0  0  0  0  0  0  0  0  0  0  0
    2.2423    0.7423    0.0000 C   0  0  0  0  0  0  0  0  0  0  0  0
    0.9434    1.4923    0.0000 C   0  0  0  0  0  0  0  0  0  0  0  0
   -0.3558    0.7423    0.0000 C   0  0  0  0  0  0  0  0  0  0  0  0
   -0.3558   -0.7577    0.0000 C   0  0  0  0  0  0  0  0  0  0  0  0
   -1.6547   -1.5077    0.0000 C   0  0  0  0  0  0  0  0  0  0  0  0
   -2.9538   -0.7577    0.0000 C   0  0  0  0  0  0  0  0  0  0  0  0
   -2.9538    0.7423    0.0000 C   0  0  0  0  0  0  0  0  0  0  0  0
   -1.6547    1.4923    0.0000 C   0  0  0  0  0  0  0  0  0  0  0  0
    3.5413    1.4923    0.0000 N   0  0  0  0  0  0  0  0  0  0  0  0
    3.5413    2.9923    0.0000 C   0  0  0  0  0  0  0  0  0  0  0  0
    4.8404    0.7423    0.0000 C   0  0  0  0  0  0  0  0  0  0  0  0
    6.1394    1.4923    0.0000 C   0  0  0  0  0  0  0  0  0  0  0  0
    7.4385    2.2423    0.0000 C   0  0  0  0  0  0  0  0  0  0  0  0
  1  2  1  0  0  0  0
  2  3  1  0  0  0  0
  2 10  1  0  0  0  0
  3  4  1  0  0  0  0
  5  4  2  0  0  0  0
  4  9  1  0  0  0  0
  6  5  1  0  0  0  0
  7  6  2  0  0  0  0
  8  7  1  0  0  0  0
  9  8  2  0  0  0  0
 10 11  1  0  0  0  0
 10 12  1  0  0  0  0
 12 13  1  0  0  0  0
 13 14  3  0  0  0  0
M  END
> <Inchi_key>
MEZLKOACVSPNER-UHFFFAOYSA-N

> <Source>
Mulliner

> <ID>
HT1874

> <H_MFHB>
0

> <CAS>


> <Cholestasis>


> <Name>
selegiline;selegiline hydrochloride

> <Class>
0


$$$$