

  -INDIGO-08031710012D

 17 19  0  0  0  0  0  0  0  0999 V2000
    0.2941   -0.5046    0.0000 F   0  0  0  0  0  0  0  0  0  0  0  0
    1.0336    0.8004    0.0000 C   0  0  0  0  0  0  0  0  0  0  0  0
    0.2731    2.0934    0.0000 C   0  0  0  0  0  0  0  0  0  0  0  0
    1.0126    3.3984    0.0000 C   0  0  0  0  0  0  0  0  0  0  0  0
    2.5125    3.4105    0.0000 C   0  0  0  0  0  0  0  0  0  0  0  0
    3.2520    4.7156    0.0000 O   0  0  0  0  0  0  0  0  0  0  0  0
    4.7520    4.7277    0.0000 C   0  0  0  0  0  0  0  0  0  0  0  0
    5.5124    3.4348    0.0000 C   0  0  0  0  0  0  0  0  0  0  0  0
    4.7729    2.1297    0.0000 C   0  0  0  0  0  0  0  0  0  0  0  0
    6.2661    2.2725    0.0000 N   0  0  0  0  0  0  0  0  0  0  0  0
    6.8634    0.8965    0.0000 C   0  0  0  0  0  0  0  0  0  0  0  0
    8.3276    0.5709    0.0000 O   0  0  0  0  0  0  0  0  0  0  0  0
    5.7392   -0.0967    0.0000 N   0  0  0  0  0  0  0  0  0  0  0  0
    4.4473    0.6655    0.0000 C   0  0  0  0  0  0  0  0  0  0  0  0
    3.0714    0.0682    0.0000 O   0  0  0  0  0  0  0  0  0  0  0  0
    3.2731    2.1176    0.0000 C   0  0  0  0  0  0  0  0  0  0  0  0
    2.5335    0.8125    0.0000 C   0  0  0  0  0  0  0  0  0  0  0  0
  1  2  1  0  0  0  0
  3  2  2  0  0  0  0
  2 17  1  0  0  0  0
  4  3  1  0  0  0  0
  5  4  2  0  0  0  0
  6  5  1  0  0  0  0
  5 16  1  0  0  0  0
  7  6  1  0  0  0  0
  8  7  1  0  0  0  0
  9  8  1  0  0  0  0
 10  9  1  0  0  0  0
  9 14  1  0  0  0  0
 16  9  1  0  0  0  0
 11 10  1  0  0  0  0
 11 12  2  0  0  0  0
 13 11  1  0  0  0  0
 14 13  1  0  0  0  0
 14 15  2  0  0  0  0
 17 16  2  0  0  0  0
M  END
> <Inchi_key>
LXANPKRCLVQAOG-UHFFFAOYSA-N

> <Source>
Mulliner

> <ID>
HT3027

> <H_MFHB>
0

> <CAS>


> <Cholestasis>


> <Name>


> <Class>
0


$$$$