

  -INDIGO-08031710012D

 31 36  0  0  0  0  0  0  0  0999 V2000
    1.0926    8.5871    0.0000 C   0  0  0  0  0  0  0  0  0  0  0  0
    1.0926    7.0871    0.0000 O   0  0  0  0  0  0  0  0  0  0  0  0
    2.3916    6.3372    0.0000 C   0  0  0  0  0  0  0  0  0  0  0  0
    3.6906    7.0873    0.0000 C   0  0  0  0  0  0  0  0  0  0  0  0
    4.9899    6.3373    0.0000 C   0  0  0  0  0  0  0  0  0  0  0  0
    4.9899    4.8373    0.0000 C   0  0  0  0  0  0  0  0  0  0  0  0
    3.6908    4.0873    0.0000 C   0  0  0  0  0  0  0  0  0  0  0  0
    2.3918    4.8372    0.0000 C   0  0  0  0  0  0  0  0  0  0  0  0
    1.0928    4.0871    0.0000 C   0  0  0  0  0  0  0  0  0  0  0  0
    0.5181    2.6284    0.0000 C   0  0  0  0  0  0  0  0  0  0  0  0
   -0.8476    1.8928    0.0000 C   0  0  0  0  0  0  0  0  0  0  0  0
   -1.9853    2.8318    0.0000 C   0  0  0  0  0  0  0  0  0  0  0  0
   -1.3586    4.2943    0.0000 C   0  0  0  0  0  0  0  0  0  0  0  0
   -1.0075    2.9364    0.0000 C   0  0  0  0  0  0  0  0  0  0  0  0
    0.0319    2.0286    0.0000 C   0  0  0  0  0  0  0  0  0  0  0  0
   -0.5095    0.4103    0.0000 C   0  0  0  0  0  0  0  0  0  0  0  0
    1.3088    2.7077    0.0000 C   0  0  0  0  0  0  0  0  0  0  0  0
   -0.0535    5.0119    0.0000 C   0  0  0  0  0  0  0  0  0  0  0  0
    6.2889    4.0873    0.0000 C   0  0  0  0  0  0  0  0  0  0  0  0
    6.2891    2.5874    0.0000 C   0  0  0  0  0  0  0  0  0  0  0  0
    7.5879    1.8374    0.0000 C   0  0  0  0  0  0  0  0  0  0  0  0
    8.8869    2.5875    0.0000 C   0  0  0  0  0  0  0  0  0  0  0  0
   10.1862    1.8377    0.0000 C   0  0  0  0  0  0  0  0  0  0  0  0
   11.4852    2.5876    0.0000 C   0  0  0  0  0  0  0  0  0  0  0  0
   11.4852    4.0876    0.0000 C   0  0  0  0  0  0  0  0  0  0  0  0
   10.1859    4.8376    0.0000 C   0  0  0  0  0  0  0  0  0  0  0  0
    8.8869    4.0875    0.0000 C   0  0  0  0  0  0  0  0  0  0  0  0
    7.5879    4.8375    0.0000 C   0  0  0  0  0  0  0  0  0  0  0  0
   12.7842    1.8377    0.0000 C   0  0  0  0  0  0  0  0  0  0  0  0
   12.7842    0.3377    0.0000 O   0  0  0  0  0  0  0  0  0  0  0  0
   14.0832    2.5876    0.0000 O   0  0  0  0  0  0  0  0  0  0  0  0
  1  2  1  0  0  0  0
  2  3  1  0  0  0  0
  4  3  2  0  0  0  0
  3  8  1  0  0  0  0
  5  4  1  0  0  0  0
  6  5  2  0  0  0  0
  7  6  1  0  0  0  0
  6 19  1  0  0  0  0
  8  7  2  0  0  0  0
  8  9  1  0  0  0  0
 10  9  1  0  0  0  0
 17  9  1  0  0  0  0
  9 18  1  0  0  0  0
 11 10  1  0  0  0  0
 11 12  1  0  0  0  0
 16 11  1  0  0  0  0
 12 13  1  0  0  0  0
 13 14  1  0  0  0  0
 18 13  1  0  0  0  0
 14 15  1  0  0  0  0
 15 16  1  0  0  0  0
 15 17  1  0  0  0  0
 20 19  2  0  0  0  0
 19 28  1  0  0  0  0
 21 20  1  0  0  0  0
 22 21  2  0  0  0  0
 23 22  1  0  0  0  0
 22 27  1  0  0  0  0
 24 23  2  0  0  0  0
 25 24  1  0  0  0  0
 24 29  1  0  0  0  0
 26 25  2  0  0  0  0
 27 26  1  0  0  0  0
 28 27  2  0  0  0  0
 29 30  2  0  0  0  0
 29 31  1  0  0  0  0
M  END
> <Inchi_key>
LZCDAPDGXCYOEH-UHFFFAOYSA-N

> <Source>
Mulliner , Kotsampasakou

> <ID>
EK0012;HT0071

> <H_MFHB>
0

> <CAS>


> <Cholestasis>
0

> <Name>
adapalene

> <Class>
0


$$$$