
  -INDIGO-08031710012D

 42 42  0  0  0  0  0  0  0  0999 V2000
    0.0000    0.0001    0.0000 C   0  0  0  0  0  0  0  0  0  0  0  0
    1.4997    0.0001    0.0000 C   0  0  0  0  0  0  0  0  0  0  0  0
    2.2499    1.2990    0.0000 C   0  0  0  0  0  0  0  0  0  0  0  0
    3.7502    1.2990    0.0000 C   0  0  0  0  0  0  0  0  0  0  0  0
    4.4997    2.5980    0.0000 N   0  0  0  0  0  0  0  0  0  0  0  0
    6.0001    2.5980    0.0000 C   0  0  0  0  0  0  0  0  0  0  0  0
    6.7502    1.2990    0.0000 C   0  0  0  0  0  0  0  0  0  0  0  0
    8.2499    1.2990    0.0000 C   0  0  0  0  0  0  0  0  0  0  0  0
    9.0001    2.5980    0.0000 C   0  0  0  0  0  0  0  0  0  0  0  0
    8.2499    3.8970    0.0000 C   0  0  0  0  0  0  0  0  0  0  0  0
    6.7502    3.8970    0.0000 C   0  0  0  0  0  0  0  0  0  0  0  0
   10.4998    2.5980    0.0000 C   0  0  0  0  0  0  0  0  0  0  0  0
   11.2500    1.2990    0.0000 O   0  0  0  0  0  0  0  0  0  0  0  0
   11.2500    3.8970    0.0000 O   0  0  0  0  0  0  0  0  0  0  0  0
   12.7503    3.8970    0.0000 C   0  0  0  0  0  0  0  0  0  0  0  0
   13.4998    5.1962    0.0000 C   0  0  0  0  0  0  0  0  0  0  0  0
   15.0002    5.1962    0.0000 O   0  0  0  0  0  0  0  0  0  0  0  0
   15.7497    6.4952    0.0000 C   0  0  0  0  0  0  0  0  0  0  0  0
   17.2500    6.4952    0.0000 C   0  0  0  0  0  0  0  0  0  0  0  0
   18.0002    5.1962    0.0000 O   0  0  0  0  0  0  0  0  0  0  0  0
   19.4999    5.1962    0.0000 C   0  0  0  0  0  0  0  0  0  0  0  0
   20.2501    3.8970    0.0000 C   0  0  0  0  0  0  0  0  0  0  0  0
   21.7498    3.8970    0.0000 O   0  0  0  0  0  0  0  0  0  0  0  0
   22.4999    2.5980    0.0000 C   0  0  0  0  0  0  0  0  0  0  0  0
   24.0003    2.5980    0.0000 C   0  0  0  0  0  0  0  0  0  0  0  0
   24.7498    1.2990    0.0000 O   0  0  0  0  0  0  0  0  0  0  0  0
   26.2501    1.2990    0.0000 C   0  0  0  0  0  0  0  0  0  0  0  0
   27.0003    0.0001    0.0000 C   0  0  0  0  0  0  0  0  0  0  0  0
   28.5000    0.0001    0.0000 O   0  0  0  0  0  0  0  0  0  0  0  0
   29.2502   -1.2989    0.0000 C   0  0  0  0  0  0  0  0  0  0  0  0
   30.7499   -1.2989    0.0000 C   0  0  0  0  0  0  0  0  0  0  0  0
   31.5000   -2.5982    0.0000 O   0  0  0  0  0  0  0  0  0  0  0  0
   32.9997   -2.5982    0.0000 C   0  0  0  0  0  0  0  0  0  0  0  0
   33.7499   -3.8971    0.0000 C   0  0  0  0  0  0  0  0  0  0  0  0
   35.2502   -3.8971    0.0000 O   0  0  0  0  0  0  0  0  0  0  0  0
   35.9998   -5.1961    0.0000 C   0  0  0  0  0  0  0  0  0  0  0  0
   37.5001   -5.1961    0.0000 C   0  0  0  0  0  0  0  0  0  0  0  0
   38.2503   -6.4951    0.0000 O   0  0  0  0  0  0  0  0  0  0  0  0
   39.7500   -6.4951    0.0000 C   0  0  0  0  0  0  0  0  0  0  0  0
   40.5001   -7.7943    0.0000 C   0  0  0  0  0  0  0  0  0  0  0  0
   41.9998   -7.7943    0.0000 O   0  0  0  0  0  0  0  0  0  0  0  0
   42.7500   -9.0933    0.0000 C   0  0  0  0  0  0  0  0  0  0  0  0
  1  2  1  0  0  0  0
  2  3  1  0  0  0  0
  3  4  1  0  0  0  0
  4  5  1  0  0  0  0
  5  6  1  0  0  0  0
  7  6  2  0  0  0  0
  6 11  1  0  0  0  0
  8  7  1  0  0  0  0
  9  8  2  0  0  0  0
 10  9  1  0  0  0  0
  9 12  1  0  0  0  0
 11 10  2  0  0  0  0
 12 13  2  0  0  0  0
 12 14  1  0  0  0  0
 14 15  1  0  0  0  0
 15 16  1  0  0  0  0
 16 17  1  0  0  0  0
 17 18  1  0  0  0  0
 18 19  1  0  0  0  0
 19 20  1  0  0  0  0
 20 21  1  0  0  0  0
 21 22  1  0  0  0  0
 22 23  1  0  0  0  0
 23 24  1  0  0  0  0
 24 25  1  0  0  0  0
 25 26  1  0  0  0  0
 26 27  1  0  0  0  0
 27 28  1  0  0  0  0
 28 29  1  0  0  0  0
 29 30  1  0  0  0  0
 30 31  1  0  0  0  0
 31 32  1  0  0  0  0
 32 33  1  0  0  0  0
 33 34  1  0  0  0  0
 34 35  1  0  0  0  0
 35 36  1  0  0  0  0
 36 37  1  0  0  0  0
 37 38  1  0  0  0  0
 38 39  1  0  0  0  0
 39 40  1  0  0  0  0
 40 41  1  0  0  0  0
 41 42  1  0  0  0  0
M  END
> <Inchi_key>
MAFMQEKGGFWBAB-UHFFFAOYSA-N

> <Source>
Mulliner

> <ID>
HT3949

> <H_MFHB>
0

> <CAS>
104-31-4

> <Cholestasis>


> <Name>


> <Class>
0

$$$$