

  -INDIGO-08031710012D

 30 33  0  0  0  0  0  0  0  0999 V2000
    9.4546    2.2005    0.0000 C   0  0  0  0  0  0  0  0  0  0  0  0
    8.1531    1.4545    0.0000 C   0  0  0  0  0  0  0  0  0  0  0  0
    6.7848    2.0689    0.0000 C   0  0  0  0  0  0  0  0  0  0  0  0
    5.7774    0.9573    0.0000 C   0  0  0  0  0  0  0  0  0  0  0  0
    4.2775    0.9620    0.0000 C   0  0  0  0  0  0  0  0  0  0  0  0
    3.5316    2.2634    0.0000 C   0  0  0  0  0  0  0  0  0  0  0  0
    2.0317    2.2681    0.0000 C   0  0  0  0  0  0  0  0  0  0  0  0
    1.2856    3.5694    0.0000 F   0  0  0  0  0  0  0  0  0  0  0  0
    1.2774    0.9714    0.0000 C   0  0  0  0  0  0  0  0  0  0  0  0
   -0.2225    0.9760    0.0000 C   0  0  0  0  0  0  0  0  0  0  0  0
   -0.9766   -0.3206    0.0000 C   0  0  0  0  0  0  0  0  0  0  0  0
   -2.4765   -0.3160    0.0000 O   0  0  0  0  0  0  0  0  0  0  0  0
   -0.2307   -1.6220    0.0000 C   0  0  0  0  0  0  0  0  0  0  0  0
    1.2695   -1.6267    0.0000 C   0  0  0  0  0  0  0  0  0  0  0  0
    2.0235   -0.3300    0.0000 C   0  0  0  0  0  0  0  0  0  0  0  0
    2.7694   -1.6314    0.0000 C   0  0  0  0  0  0  0  0  0  0  0  0
    3.5234   -0.3347    0.0000 C   0  0  0  0  0  0  0  0  0  0  0  0
    5.0236   -0.3394    0.0000 F   0  0  0  0  0  0  0  0  0  0  0  0
    4.2693   -1.6361    0.0000 C   0  0  0  0  0  0  0  0  0  0  0  0
    3.5155   -2.9327    0.0000 O   0  0  0  0  0  0  0  0  0  0  0  0
    5.7695   -1.6407    0.0000 C   0  0  0  0  0  0  0  0  0  0  0  0
    6.5235   -0.3440    0.0000 C   0  0  0  0  0  0  0  0  0  0  0  0
    7.3800   -1.5755    0.0000 C   0  0  0  0  0  0  0  0  0  0  0  0
    7.9916   -0.0368    0.0000 C   0  0  0  0  0  0  0  0  0  0  0  0
    8.4756   -1.4566    0.0000 O   0  0  0  0  0  0  0  0  0  0  0  0
    9.4725   -0.2760    0.0000 C   0  0  0  0  0  0  0  0  0  0  0  0
   10.4201    0.8867    0.0000 O   0  0  0  0  0  0  0  0  0  0  0  0
   10.0056   -1.6781    0.0000 S   0  0  0  0  0  0  0  0  0  0  0  0
   11.4863   -1.9173    0.0000 C   0  0  0  0  0  0  0  0  0  0  0  0
   12.0196   -3.3194    0.0000 F   0  0  0  0  0  0  0  0  0  0  0  0
  1  2  1  0  0  0  0
  3  2  1  0  0  0  0
  2 24  1  0  0  0  0
  4  3  1  0  0  0  0
  5  4  1  0  0  0  0
  4 22  1  0  0  0  0
  6  5  1  0  0  0  0
  5 17  1  0  0  0  0
  7  6  1  0  0  0  0
  7  8  1  0  0  0  0
  9  7  1  0  0  0  0
 10  9  2  0  0  0  0
  9 15  1  0  0  0  0
 11 10  1  0  0  0  0
 11 12  2  0  0  0  0
 13 11  1  0  0  0  0
 14 13  2  0  0  0  0
 15 14  1  0  0  0  0
 15 16  1  0  0  0  0
 17 15  1  0  0  0  0
 17 18  1  0  0  0  0
 19 17  1  0  0  0  0
 19 20  1  0  0  0  0
 21 19  1  0  0  0  0
 22 21  1  0  0  0  0
 22 23  1  0  0  0  0
 24 22  1  0  0  0  0
 24 25  1  0  0  0  0
 24 26  1  0  0  0  0
 26 27  2  0  0  0  0
 26 28  1  0  0  0  0
 28 29  1  0  0  0  0
 29 30  1  0  0  0  0
M  END
> <Inchi_key>
MGNNYOODZCAHBA-UHFFFAOYSA-N

> <Source>
Mulliner , Kotsampasakou

> <ID>
EK0229;HT0923

> <H_MFHB>
0

> <CAS>


> <Cholestasis>
0

> <Name>
fluticasone

> <Class>
0


$$$$