
  -INDIGO-08031710012D

 17 18  0  0  0  0  0  0  0  0999 V2000
    0.3137   -5.5098    0.0000 O   0  0  0  0  0  0  0  0  0  0  0  0
    0.3137   -4.0098    0.0000 C   0  0  0  0  0  0  0  0  0  0  0  0
   -0.9853   -3.2598    0.0000 C   0  0  0  0  0  0  0  0  0  0  0  0
   -0.9853   -1.7598    0.0000 C   0  0  0  0  0  0  0  0  0  0  0  0
    0.3137   -1.0098    0.0000 C   0  0  0  0  0  0  0  0  0  0  0  0
    0.3137    0.4902    0.0000 Cl  0  0  0  0  0  0  0  0  0  0  0  0
    1.6126   -1.7598    0.0000 C   0  0  0  0  0  0  0  0  0  0  0  0
    1.6126   -3.2598    0.0000 C   0  0  0  0  0  0  0  0  0  0  0  0
    2.9119   -4.0098    0.0000 C   0  0  0  0  0  0  0  0  0  0  0  0
    4.2108   -3.2598    0.0000 C   0  0  0  0  0  0  0  0  0  0  0  0
    4.2108   -1.7598    0.0000 C   0  0  0  0  0  0  0  0  0  0  0  0
    5.5098   -1.0098    0.0000 C   0  0  0  0  0  0  0  0  0  0  0  0
    5.5098    0.4902    0.0000 Cl  0  0  0  0  0  0  0  0  0  0  0  0
    6.8089   -1.7598    0.0000 C   0  0  0  0  0  0  0  0  0  0  0  0
    6.8089   -3.2598    0.0000 C   0  0  0  0  0  0  0  0  0  0  0  0
    5.5098   -4.0098    0.0000 C   0  0  0  0  0  0  0  0  0  0  0  0
    5.5098   -5.5098    0.0000 O   0  0  0  0  0  0  0  0  0  0  0  0
  1  2  1  0  0  0  0
  3  2  2  0  0  0  0
  2  8  1  0  0  0  0
  4  3  1  0  0  0  0
  5  4  2  0  0  0  0
  5  6  1  0  0  0  0
  7  5  1  0  0  0  0
  8  7  2  0  0  0  0
  8  9  1  0  0  0  0
  9 10  1  0  0  0  0
 11 10  2  0  0  0  0
 10 16  1  0  0  0  0
 12 11  1  0  0  0  0
 12 13  1  0  0  0  0
 14 12  2  0  0  0  0
 15 14  1  0  0  0  0
 16 15  2  0  0  0  0
 16 17  1  0  0  0  0
M  END
> <Inchi_key>
MDNWOSOZYLHTCG-UHFFFAOYSA-N

> <Source>
Mulliner

> <ID>
HT0644

> <H_MFHB>
0

> <CAS>


> <Cholestasis>


> <Name>
dichlorophene

> <Class>
0

$$$$