
  -INDIGO-08031710012D

 25 27  0  0  0  0  0  0  0  0999 V2000
   14.1050    3.7795    0.0000 C   0  0  0  0  0  0  0  0  0  0  0  0
   12.8061    3.0294    0.0000 C   0  0  0  0  0  0  0  0  0  0  0  0
   12.8061    1.5294    0.0000 N   0  0  0  0  0  0  0  0  0  0  0  0
   14.1050    0.7795    0.0000 C   0  0  0  0  0  0  0  0  0  0  0  0
   14.1050   -0.7206    0.0000 C   0  0  0  0  0  0  0  0  0  0  0  0
   11.5068    0.7795    0.0000 C   0  0  0  0  0  0  0  0  0  0  0  0
   10.2079    1.5294    0.0000 C   0  0  0  0  0  0  0  0  0  0  0  0
    8.9088    0.7795    0.0000 N   0  0  0  0  0  0  0  0  0  0  0  0
    7.6097    1.5294    0.0000 C   0  0  0  0  0  0  0  0  0  0  0  0
    7.6097    3.0294    0.0000 C   0  0  0  0  0  0  0  0  0  0  0  0
    6.3108    3.7795    0.0000 C   0  0  0  0  0  0  0  0  0  0  0  0
    5.0117    3.0294    0.0000 C   0  0  0  0  0  0  0  0  0  0  0  0
    3.7126    3.7795    0.0000 C   0  0  0  0  0  0  0  0  0  0  0  0
    3.7126    5.2794    0.0000 O   0  0  0  0  0  0  0  0  0  0  0  0
    5.0117    1.5294    0.0000 C   0  0  0  0  0  0  0  0  0  0  0  0
    3.7126    0.7795    0.0000 S   0  0  0  0  0  0  0  0  0  0  0  0
    3.7126   -0.7206    0.0000 C   0  0  0  0  0  0  0  0  0  0  0  0
    2.4137   -1.4706    0.0000 C   0  0  0  0  0  0  0  0  0  0  0  0
    2.4137   -2.9706    0.0000 C   0  0  0  0  0  0  0  0  0  0  0  0
    3.7126   -3.7206    0.0000 C   0  0  0  0  0  0  0  0  0  0  0  0
    5.0117   -2.9706    0.0000 C   0  0  0  0  0  0  0  0  0  0  0  0
    5.0117   -1.4706    0.0000 C   0  0  0  0  0  0  0  0  0  0  0  0
    6.3108   -0.7206    0.0000 C   0  0  0  0  0  0  0  0  0  0  0  0
    7.6097   -1.4706    0.0000 O   0  0  0  0  0  0  0  0  0  0  0  0
    6.3108    0.7795    0.0000 C   0  0  0  0  0  0  0  0  0  0  0  0
  1  2  1  0  0  0  0
  2  3  1  0  0  0  0
  3  4  1  0  0  0  0
  3  6  1  0  0  0  0
  4  5  1  0  0  0  0
  6  7  1  0  0  0  0
  7  8  1  0  0  0  0
  8  9  1  0  0  0  0
 10  9  2  0  0  0  0
  9 25  1  0  0  0  0
 11 10  1  0  0  0  0
 12 11  2  0  0  0  0
 12 13  1  0  0  0  0
 15 12  1  0  0  0  0
 13 14  1  0  0  0  0
 16 15  1  0  0  0  0
 15 25  2  0  0  0  0
 17 16  1  0  0  0  0
 18 17  1  0  0  0  0
 17 22  2  0  0  0  0
 19 18  2  0  0  0  0
 20 19  1  0  0  0  0
 21 20  2  0  0  0  0
 22 21  1  0  0  0  0
 23 22  1  0  0  0  0
 23 24  2  0  0  0  0
 25 23  1  0  0  0  0
M  END
> <Inchi_key>
MFZWMTSUNYWVBU-UHFFFAOYSA-N

> <Source>
Mulliner

> <ID>
HT1041

> <H_MFHB>
0

> <CAS>
23255-93-8

> <Cholestasis>


> <Name>
hycanthone

> <Class>
0

$$$$