
  -INDIGO-08031710012D

 21 23  0  0  0  0  0  0  0  0999 V2000
    0.7601    2.6815    0.0000 C   0  0  0  0  0  0  0  0  0  0  0  0
    2.0592    1.9315    0.0000 C   0  0  0  0  0  0  0  0  0  0  0  0
    3.3581    2.6815    0.0000 C   0  0  0  0  0  0  0  0  0  0  0  0
    4.6573    1.9315    0.0000 C   0  0  0  0  0  0  0  0  0  0  0  0
    4.6573    0.4315    0.0000 C   0  0  0  0  0  0  0  0  0  0  0  0
    3.3581   -0.3185    0.0000 C   0  0  0  0  0  0  0  0  0  0  0  0
    2.0592    0.4315    0.0000 C   0  0  0  0  0  0  0  0  0  0  0  0
    5.9562   -0.3185    0.0000 N   0  0  0  0  0  0  0  0  0  0  0  0
    5.9562   -1.8186    0.0000 C   0  0  0  0  0  0  0  0  0  0  0  0
    4.6573   -2.5685    0.0000 C   0  0  0  0  0  0  0  0  0  0  0  0
    4.5004   -4.0603    0.0000 N   0  0  0  0  0  0  0  0  0  0  0  0
    3.0331   -4.3721    0.0000 C   0  0  0  0  0  0  0  0  0  0  0  0
    2.2832   -3.0731    0.0000 C   0  0  0  0  0  0  0  0  0  0  0  0
    3.2869   -1.9584    0.0000 N   0  0  0  0  0  0  0  0  0  0  0  0
    7.2552    0.4315    0.0000 C   0  0  0  0  0  0  0  0  0  0  0  0
    7.2552    1.9315    0.0000 C   0  0  0  0  0  0  0  0  0  0  0  0
    8.5543    2.6815    0.0000 C   0  0  0  0  0  0  0  0  0  0  0  0
    9.8533    1.9315    0.0000 C   0  0  0  0  0  0  0  0  0  0  0  0
    9.8533    0.4315    0.0000 C   0  0  0  0  0  0  0  0  0  0  0  0
   11.1524   -0.3185    0.0000 O   0  0  0  0  0  0  0  0  0  0  0  0
    8.5543   -0.3185    0.0000 C   0  0  0  0  0  0  0  0  0  0  0  0
  1  2  1  0  0  0  0
  3  2  2  0  0  0  0
  2  7  1  0  0  0  0
  4  3  1  0  0  0  0
  5  4  2  0  0  0  0
  6  5  1  0  0  0  0
  5  8  1  0  0  0  0
  7  6  2  0  0  0  0
  8  9  1  0  0  0  0
  8 15  1  0  0  0  0
  9 10  1  0  0  0  0
 11 10  2  0  0  0  0
 10 14  1  0  0  0  0
 12 11  1  0  0  0  0
 13 12  1  0  0  0  0
 14 13  1  0  0  0  0
 16 15  2  0  0  0  0
 15 21  1  0  0  0  0
 17 16  1  0  0  0  0
 18 17  2  0  0  0  0
 19 18  1  0  0  0  0
 19 20  1  0  0  0  0
 21 19  2  0  0  0  0
M  END
> <Inchi_key>
MRBDMNSDAVCSSF-UHFFFAOYSA-N

> <Source>
Mulliner , Kotsampasakou

> <ID>
EK0419;HT1658

> <H_MFHB>
0

> <CAS>


> <Cholestasis>
0

> <Name>
phentolamine

> <Class>
0

$$$$