
  -INDIGO-08031710012D

 38 40  0  0  0  0  0  0  0  0999 V2000
   -0.0001   14.0843    0.0000 N   0  0  0  0  0  0  0  0  0  0  0  0
    1.5001   14.0843    0.0000 C   0  0  0  0  0  0  0  0  0  0  0  0
    2.2501   12.7854    0.0000 C   0  0  0  0  0  0  0  0  0  0  0  0
    3.7500   12.7854    0.0000 C   0  0  0  0  0  0  0  0  0  0  0  0
    4.5001   14.0843    0.0000 O   0  0  0  0  0  0  0  0  0  0  0  0
    4.5001   11.4862    0.0000 C   0  0  0  0  0  0  0  0  0  0  0  0
    5.9999   11.4862    0.0000 O   0  0  0  0  0  0  0  0  0  0  0  0
    3.7500   10.1873    0.0000 N   0  0  0  0  0  0  0  0  0  0  0  0
    4.5001    8.8881    0.0000 C   0  0  0  0  0  0  0  0  0  0  0  0
    5.9999    8.8881    0.0000 C   0  0  0  0  0  0  0  0  0  0  0  0
    6.7500    7.5892    0.0000 C   0  0  0  0  0  0  0  0  0  0  0  0
    8.2501    7.5892    0.0000 N   0  0  0  0  0  0  0  0  0  0  0  0
    5.9999    6.2901    0.0000 C   0  0  0  0  0  0  0  0  0  0  0  0
    6.7500    4.9909    0.0000 O   0  0  0  0  0  0  0  0  0  0  0  0
    8.2501    4.9909    0.0000 C   0  0  0  0  0  0  0  0  0  0  0  0
    8.9999    6.2901    0.0000 O   0  0  0  0  0  0  0  0  0  0  0  0
   10.5001    6.2901    0.0000 C   0  0  0  0  0  0  0  0  0  0  0  0
   11.2501    7.5892    0.0000 C   0  0  0  0  0  0  0  0  0  0  0  0
   12.7500    7.5892    0.0000 N   0  0  0  0  0  0  0  0  0  0  0  0
   11.2501    4.9909    0.0000 C   0  0  0  0  0  0  0  0  0  0  0  0
   10.5001    3.6920    0.0000 C   0  0  0  0  0  0  0  0  0  0  0  0
    8.9999    3.6920    0.0000 C   0  0  0  0  0  0  0  0  0  0  0  0
    8.2501    2.3930    0.0000 N   0  0  0  0  0  0  0  0  0  0  0  0
    4.5001    6.2901    0.0000 C   0  0  0  0  0  0  0  0  0  0  0  0
    3.7500    4.9909    0.0000 O   0  0  0  0  0  0  0  0  0  0  0  0
    3.7500    7.5892    0.0000 C   0  0  0  0  0  0  0  0  0  0  0  0
    2.2501    7.5892    0.0000 O   0  0  0  0  0  0  0  0  0  0  0  0
    1.5001    6.2901    0.0000 C   0  0  0  0  0  0  0  0  0  0  0  0
    2.2501    4.9909    0.0000 O   0  0  0  0  0  0  0  0  0  0  0  0
    1.5001    3.6920    0.0000 C   0  0  0  0  0  0  0  0  0  0  0  0
    2.2501    2.3930    0.0000 C   0  0  0  0  0  0  0  0  0  0  0  0
    1.5001    1.0939    0.0000 O   0  0  0  0  0  0  0  0  0  0  0  0
   -0.0001    3.6920    0.0000 C   0  0  0  0  0  0  0  0  0  0  0  0
   -0.7499    2.3930    0.0000 O   0  0  0  0  0  0  0  0  0  0  0  0
   -0.7499    4.9909    0.0000 C   0  0  0  0  0  0  0  0  0  0  0  0
   -2.2500    4.9909    0.0000 N   0  0  0  0  0  0  0  0  0  0  0  0
   -0.0001    6.2901    0.0000 C   0  0  0  0  0  0  0  0  0  0  0  0
   -0.7499    7.5892    0.0000 O   0  0  0  0  0  0  0  0  0  0  0  0
  1  2  1  0  0  0  0
  2  3  1  0  0  0  0
  3  4  1  0  0  0  0
  4  5  1  0  0  0  0
  4  6  1  0  0  0  0
  6  7  2  0  0  0  0
  6  8  1  0  0  0  0
  8  9  1  0  0  0  0
 10  9  1  0  0  0  0
  9 26  1  0  0  0  0
 11 10  1  0  0  0  0
 11 12  1  0  0  0  0
 13 11  1  0  0  0  0
 13 14  1  0  0  0  0
 24 13  1  0  0  0  0
 14 15  1  0  0  0  0
 16 15  1  0  0  0  0
 15 22  1  0  0  0  0
 17 16  1  0  0  0  0
 17 18  1  0  0  0  0
 20 17  1  0  0  0  0
 18 19  1  0  0  0  0
 21 20  1  0  0  0  0
 22 21  1  0  0  0  0
 22 23  1  0  0  0  0
 24 25  1  0  0  0  0
 26 24  1  0  0  0  0
 26 27  1  0  0  0  0
 27 28  1  0  0  0  0
 29 28  1  0  0  0  0
 28 37  1  0  0  0  0
 30 29  1  0  0  0  0
 30 31  1  0  0  0  0
 33 30  1  0  0  0  0
 31 32  1  0  0  0  0
 33 34  1  0  0  0  0
 35 33  1  0  0  0  0
 35 36  1  0  0  0  0
 37 35  1  0  0  0  0
 37 38  1  0  0  0  0
M  END
> <Inchi_key>
MKKYBZZTJQGVCD-UHFFFAOYSA-N

> <Source>
Mulliner

> <ID>
HT0176

> <H_MFHB>
0

> <CAS>


> <Cholestasis>


> <Name>
arbekacin

> <Class>
0

$$$$