

  -INDIGO-08031710012D

 17 18  0  0  0  0  0  0  0  0999 V2000
    0.0000    0.0000    0.0000 N   0  0  0  0  0  0  0  0  0  0  0  0
    1.5000    0.0000    0.0000 C   0  0  0  0  0  0  0  0  0  0  0  0
    2.2500    1.2990    0.0000 C   0  0  0  0  0  0  0  0  0  0  0  0
    3.7501    1.2990    0.0000 C   0  0  0  0  0  0  0  0  0  0  0  0
    4.5001    0.0000    0.0000 C   0  0  0  0  0  0  0  0  0  0  0  0
    3.7501   -1.2990    0.0000 C   0  0  0  0  0  0  0  0  0  0  0  0
    2.2500   -1.2990    0.0000 C   0  0  0  0  0  0  0  0  0  0  0  0
    6.0001    0.0000    0.0000 S   0  0  0  0  0  0  0  0  0  0  0  0
    6.0001    1.5000    0.0000 O   0  0  0  0  0  0  0  0  0  0  0  0
    6.0001   -1.5000    0.0000 O   0  0  0  0  0  0  0  0  0  0  0  0
    7.4999    0.0000    0.0000 C   0  0  0  0  0  0  0  0  0  0  0  0
    8.2499   -1.2990    0.0000 C   0  0  0  0  0  0  0  0  0  0  0  0
    9.7500   -1.2990    0.0000 C   0  0  0  0  0  0  0  0  0  0  0  0
   10.5000    0.0000    0.0000 C   0  0  0  0  0  0  0  0  0  0  0  0
   12.0000    0.0000    0.0000 N   0  0  0  0  0  0  0  0  0  0  0  0
    9.7500    1.2990    0.0000 C   0  0  0  0  0  0  0  0  0  0  0  0
    8.2499    1.2990    0.0000 C   0  0  0  0  0  0  0  0  0  0  0  0
  1  2  1  0  0  0  0
  3  2  2  0  0  0  0
  2  7  1  0  0  0  0
  4  3  1  0  0  0  0
  5  4  2  0  0  0  0
  6  5  1  0  0  0  0
  5  8  1  0  0  0  0
  7  6  2  0  0  0  0
  8  9  2  0  0  0  0
  8 10  2  0  0  0  0
  8 11  1  0  0  0  0
 12 11  2  0  0  0  0
 11 17  1  0  0  0  0
 13 12  1  0  0  0  0
 14 13  2  0  0  0  0
 14 15  1  0  0  0  0
 16 14  1  0  0  0  0
 17 16  2  0  0  0  0
M  END
> <Inchi_key>
MQJKPEGWNLWLTK-UHFFFAOYSA-N

> <Source>
Mulliner

> <ID>
HT0591

> <H_MFHB>
0

> <CAS>
80-08-0

> <Cholestasis>


> <Name>
dapsone

> <Class>
0


$$$$