
  -INDIGO-08031710012D

 11 11  0  0  0  0  0  0  0  0999 V2000
    8.1818   -2.3619    0.0000 C   0  0  0  0  0  0  0  0  0  0  0  0
    6.6819   -2.3619    0.0000 O   0  0  0  0  0  0  0  0  0  0  0  0
    5.9318   -1.0628    0.0000 C   0  0  0  0  0  0  0  0  0  0  0  0
    6.6819    0.2362    0.0000 O   0  0  0  0  0  0  0  0  0  0  0  0
    4.4318   -1.0628    0.0000 C   0  0  0  0  0  0  0  0  0  0  0  0
    3.6818   -2.3619    0.0000 C   0  0  0  0  0  0  0  0  0  0  0  0
    2.1818   -2.3619    0.0000 C   0  0  0  0  0  0  0  0  0  0  0  0
    1.4317   -1.0628    0.0000 C   0  0  0  0  0  0  0  0  0  0  0  0
   -0.0682   -1.0628    0.0000 O   0  0  0  0  0  0  0  0  0  0  0  0
    2.1818    0.2362    0.0000 C   0  0  0  0  0  0  0  0  0  0  0  0
    3.6818    0.2362    0.0000 C   0  0  0  0  0  0  0  0  0  0  0  0
  1  2  1  0  0  0  0
  2  3  1  0  0  0  0
  3  4  2  0  0  0  0
  3  5  1  0  0  0  0
  6  5  2  0  0  0  0
  5 11  1  0  0  0  0
  7  6  1  0  0  0  0
  8  7  2  0  0  0  0
  8  9  1  0  0  0  0
 10  8  1  0  0  0  0
 11 10  2  0  0  0  0
M  END
> <Inchi_key>
LXCFILQKKLGQFO-UHFFFAOYSA-N

> <Source>
Mulliner

> <ID>
HT2639

> <H_MFHB>
0

> <CAS>


> <Cholestasis>


> <Name>


> <Class>
0

$$$$