

  -INDIGO-08031710012D

 16 16  0  0  0  0  0  0  0  0999 V2000
   13.3573   -2.2666    0.0000 C   0  0  0  0  0  0  0  0  0  0  0  0
   12.0584   -3.0166    0.0000 C   0  0  0  0  0  0  0  0  0  0  0  0
   10.7593   -2.2666    0.0000 C   0  0  0  0  0  0  0  0  0  0  0  0
    9.4602   -3.0166    0.0000 N   0  0  0  0  0  0  0  0  0  0  0  0
    8.1613   -2.2666    0.0000 C   0  0  0  0  0  0  0  0  0  0  0  0
    8.1613   -0.7666    0.0000 C   0  0  0  0  0  0  0  0  0  0  0  0
    6.8620   -3.0166    0.0000 C   0  0  0  0  0  0  0  0  0  0  0  0
    6.8620   -4.5166    0.0000 O   0  0  0  0  0  0  0  0  0  0  0  0
    5.5631   -2.2666    0.0000 N   0  0  0  0  0  0  0  0  0  0  0  0
    4.2642   -3.0166    0.0000 C   0  0  0  0  0  0  0  0  0  0  0  0
    4.2642   -4.5166    0.0000 C   0  0  0  0  0  0  0  0  0  0  0  0
    2.9649   -5.2666    0.0000 C   0  0  0  0  0  0  0  0  0  0  0  0
    1.6660   -4.5166    0.0000 C   0  0  0  0  0  0  0  0  0  0  0  0
    1.6660   -3.0166    0.0000 C   0  0  0  0  0  0  0  0  0  0  0  0
    2.9649   -2.2666    0.0000 C   0  0  0  0  0  0  0  0  0  0  0  0
    2.9649   -0.7666    0.0000 C   0  0  0  0  0  0  0  0  0  0  0  0
  1  2  1  0  0  0  0
  2  3  1  0  0  0  0
  3  4  1  0  0  0  0
  4  5  1  0  0  0  0
  5  6  1  0  0  0  0
  5  7  1  0  0  0  0
  7  8  2  0  0  0  0
  7  9  1  0  0  0  0
  9 10  1  0  0  0  0
 11 10  2  0  0  0  0
 10 15  1  0  0  0  0
 12 11  1  0  0  0  0
 13 12  2  0  0  0  0
 14 13  1  0  0  0  0
 15 14  2  0  0  0  0
 15 16  1  0  0  0  0
M  END
> <Inchi_key>
MVFGUOIZUNYYSO-UHFFFAOYSA-N

> <Source>
Mulliner

> <ID>
HT1738

> <H_MFHB>
0

> <CAS>


> <Cholestasis>


> <Name>
prilocaine

> <Class>
0


$$$$