
  -INDIGO-08031710012D

 29 32  0  0  0  0  0  0  0  0999 V2000
   17.0312    4.6469    0.0000 C   0  0  0  0  0  0  0  0  0  0  0  0
   15.5431    4.8364    0.0000 C   0  0  0  0  0  0  0  0  0  0  0  0
   14.9633    6.2197    0.0000 O   0  0  0  0  0  0  0  0  0  0  0  0
   14.6352    3.6425    0.0000 O   0  0  0  0  0  0  0  0  0  0  0  0
   13.1471    3.8320    0.0000 C   0  0  0  0  0  0  0  0  0  0  0  0
   12.2389    2.6381    0.0000 C   0  0  0  0  0  0  0  0  0  0  0  0
   12.8188    1.2547    0.0000 O   0  0  0  0  0  0  0  0  0  0  0  0
   10.7511    2.8276    0.0000 C   0  0  0  0  0  0  0  0  0  0  0  0
   11.2822    1.4248    0.0000 O   0  0  0  0  0  0  0  0  0  0  0  0
   10.8624    4.3234    0.0000 C   0  0  0  0  0  0  0  0  0  0  0  0
    9.4742    4.8916    0.0000 C   0  0  0  0  0  0  0  0  0  0  0  0
    8.5047    3.7469    0.0000 C   0  0  0  0  0  0  0  0  0  0  0  0
    7.0054    3.7012    0.0000 C   0  0  0  0  0  0  0  0  0  0  0  0
    6.2165    4.9769    0.0000 C   0  0  0  0  0  0  0  0  0  0  0  0
    4.7172    4.9313    0.0000 C   0  0  0  0  0  0  0  0  0  0  0  0
    4.0069    3.6100    0.0000 C   0  0  0  0  0  0  0  0  0  0  0  0
    2.5076    3.5644    0.0000 C   0  0  0  0  0  0  0  0  0  0  0  0
    1.7975    2.2432    0.0000 C   0  0  0  0  0  0  0  0  0  0  0  0
    0.2982    2.1975    0.0000 O   0  0  0  0  0  0  0  0  0  0  0  0
    2.5867    0.9675    0.0000 C   0  0  0  0  0  0  0  0  0  0  0  0
    4.0860    1.0131    0.0000 C   0  0  0  0  0  0  0  0  0  0  0  0
    4.7961    2.3344    0.0000 C   0  0  0  0  0  0  0  0  0  0  0  0
    5.5853    1.0588    0.0000 C   0  0  0  0  0  0  0  0  0  0  0  0
    6.2954    2.3800    0.0000 C   0  0  0  0  0  0  0  0  0  0  0  0
    7.0846    1.1044    0.0000 C   0  0  0  0  0  0  0  0  0  0  0  0
    6.3745   -0.2169    0.0000 O   0  0  0  0  0  0  0  0  0  0  0  0
    8.5839    1.1500    0.0000 C   0  0  0  0  0  0  0  0  0  0  0  0
    9.2940    2.4712    0.0000 C   0  0  0  0  0  0  0  0  0  0  0  0
   10.1912    1.2692    0.0000 C   0  0  0  0  0  0  0  0  0  0  0  0
  1  2  1  0  0  0  0
  2  3  2  0  0  0  0
  2  4  1  0  0  0  0
  4  5  1  0  0  0  0
  5  6  1  0  0  0  0
  6  7  2  0  0  0  0
  6  8  1  0  0  0  0
  8  9  1  0  0  0  0
 10  8  1  0  0  0  0
  8 28  1  0  0  0  0
 11 10  1  0  0  0  0
 12 11  1  0  0  0  0
 13 12  1  0  0  0  0
 12 28  1  0  0  0  0
 14 13  1  0  0  0  0
 13 24  1  0  0  0  0
 15 14  1  0  0  0  0
 16 15  1  0  0  0  0
 17 16  2  0  0  0  0
 16 22  1  0  0  0  0
 18 17  1  0  0  0  0
 18 19  2  0  0  0  0
 20 18  1  0  0  0  0
 21 20  2  0  0  0  0
 22 21  1  0  0  0  0
 22 23  1  0  0  0  0
 24 22  1  0  0  0  0
 25 24  1  0  0  0  0
 25 26  1  0  0  0  0
 27 25  1  0  0  0  0
 28 27  1  0  0  0  0
 28 29  1  0  0  0  0
M  END
> <Inchi_key>
LRJOMUJRLNCICJ-UHFFFAOYSA-N

> <Source>
Mulliner

> <ID>
HT1731

> <H_MFHB>
0

> <CAS>


> <Cholestasis>


> <Name>
prednisolone acetate

> <Class>
0

$$$$