

  -INDIGO-08031710012D

 21 22  0  0  0  0  0  0  0  0999 V2000
   -1.1875    4.2839    0.0000 C   0  0  0  0  0  0  0  0  0  0  0  0
   -0.4376    2.9849    0.0000 N   0  0  0  0  0  0  0  0  0  0  0  0
   -1.1875    1.6859    0.0000 C   0  0  0  0  0  0  0  0  0  0  0  0
   -0.4376    0.3868    0.0000 O   0  0  0  0  0  0  0  0  0  0  0  0
   -2.6876    1.6859    0.0000 C   0  0  0  0  0  0  0  0  0  0  0  0
   -3.4376    2.9849    0.0000 Cl  0  0  0  0  0  0  0  0  0  0  0  0
   -3.4376    0.3868    0.0000 Cl  0  0  0  0  0  0  0  0  0  0  0  0
    1.0624    2.9849    0.0000 C   0  0  0  0  0  0  0  0  0  0  0  0
    1.8123    1.6859    0.0000 C   0  0  0  0  0  0  0  0  0  0  0  0
    3.3124    1.6859    0.0000 C   0  0  0  0  0  0  0  0  0  0  0  0
    4.0624    2.9849    0.0000 C   0  0  0  0  0  0  0  0  0  0  0  0
    5.5623    2.9849    0.0000 O   0  0  0  0  0  0  0  0  0  0  0  0
    6.3125    4.2839    0.0000 C   0  0  0  0  0  0  0  0  0  0  0  0
    5.5623    5.5830    0.0000 O   0  0  0  0  0  0  0  0  0  0  0  0
    7.8124    4.2839    0.0000 C   0  0  0  0  0  0  0  0  0  0  0  0
    8.6941    5.4975    0.0000 O   0  0  0  0  0  0  0  0  0  0  0  0
   10.1206    5.0339    0.0000 C   0  0  0  0  0  0  0  0  0  0  0  0
   10.1206    3.5339    0.0000 C   0  0  0  0  0  0  0  0  0  0  0  0
    8.6941    3.0704    0.0000 C   0  0  0  0  0  0  0  0  0  0  0  0
    3.3124    4.2839    0.0000 C   0  0  0  0  0  0  0  0  0  0  0  0
    1.8123    4.2839    0.0000 C   0  0  0  0  0  0  0  0  0  0  0  0
  1  2  1  0  0  0  0
  2  3  1  0  0  0  0
  2  8  1  0  0  0  0
  3  4  2  0  0  0  0
  3  5  1  0  0  0  0
  5  6  1  0  0  0  0
  5  7  1  0  0  0  0
  9  8  2  0  0  0  0
  8 21  1  0  0  0  0
 10  9  1  0  0  0  0
 11 10  2  0  0  0  0
 11 12  1  0  0  0  0
 20 11  1  0  0  0  0
 12 13  1  0  0  0  0
 13 14  2  0  0  0  0
 13 15  1  0  0  0  0
 16 15  1  0  0  0  0
 15 19  2  0  0  0  0
 17 16  1  0  0  0  0
 18 17  2  0  0  0  0
 19 18  1  0  0  0  0
 21 20  2  0  0  0  0
M  END
> <Inchi_key>
BDYYDXJSHYEDGB-UHFFFAOYSA-N

> <Source>
Mulliner

> <ID>
HT0673

> <H_MFHB>
0

> <CAS>


> <Cholestasis>


> <Name>
diloxanide

> <Class>
0


$$$$