

  -INDIGO-08031710012D

 31 34  0  0  0  0  0  0  0  0999 V2000
   17.0257   -2.1426    0.0000 C   0  0  0  0  0  0  0  0  0  0  0  0
   15.7267   -2.8927    0.0000 C   0  0  0  0  0  0  0  0  0  0  0  0
   16.4768   -4.1917    0.0000 C   0  0  0  0  0  0  0  0  0  0  0  0
   14.9766   -1.5935    0.0000 C   0  0  0  0  0  0  0  0  0  0  0  0
   14.4277   -3.6426    0.0000 C   0  0  0  0  0  0  0  0  0  0  0  0
   13.1287   -2.8927    0.0000 C   0  0  0  0  0  0  0  0  0  0  0  0
   11.8297   -3.6426    0.0000 C   0  0  0  0  0  0  0  0  0  0  0  0
   11.8297   -5.1426    0.0000 C   0  0  0  0  0  0  0  0  0  0  0  0
   10.5307   -5.8927    0.0000 C   0  0  0  0  0  0  0  0  0  0  0  0
    9.2314   -5.1426    0.0000 N   0  0  0  0  0  0  0  0  0  0  0  0
    9.2314   -3.6426    0.0000 C   0  0  0  0  0  0  0  0  0  0  0  0
    7.9324   -2.8927    0.0000 C   0  0  0  0  0  0  0  0  0  0  0  0
    6.6335   -3.6426    0.0000 N   0  0  0  0  0  0  0  0  0  0  0  0
    6.6335   -5.1426    0.0000 C   0  0  0  0  0  0  0  0  0  0  0  0
    7.9324   -5.8927    0.0000 C   0  0  0  0  0  0  0  0  0  0  0  0
    5.3345   -2.8927    0.0000 C   0  0  0  0  0  0  0  0  0  0  0  0
    5.3345   -1.3927    0.0000 C   0  0  0  0  0  0  0  0  0  0  0  0
    4.0355   -0.6426    0.0000 C   0  0  0  0  0  0  0  0  0  0  0  0
    4.0355    0.8574    0.0000 C   0  0  0  0  0  0  0  0  0  0  0  0
    5.3345    1.6073    0.0000 C   0  0  0  0  0  0  0  0  0  0  0  0
    6.6335    0.8574    0.0000 C   0  0  0  0  0  0  0  0  0  0  0  0
    6.6335   -0.6426    0.0000 C   0  0  0  0  0  0  0  0  0  0  0  0
    4.0355   -3.6426    0.0000 C   0  0  0  0  0  0  0  0  0  0  0  0
    2.7362   -2.8927    0.0000 C   0  0  0  0  0  0  0  0  0  0  0  0
    1.4372   -3.6426    0.0000 C   0  0  0  0  0  0  0  0  0  0  0  0
    1.4372   -5.1426    0.0000 C   0  0  0  0  0  0  0  0  0  0  0  0
    0.1382   -5.8927    0.0000 Cl  0  0  0  0  0  0  0  0  0  0  0  0
    2.7362   -5.8927    0.0000 C   0  0  0  0  0  0  0  0  0  0  0  0
    4.0355   -5.1426    0.0000 C   0  0  0  0  0  0  0  0  0  0  0  0
   13.1287   -5.8927    0.0000 C   0  0  0  0  0  0  0  0  0  0  0  0
   14.4277   -5.1426    0.0000 C   0  0  0  0  0  0  0  0  0  0  0  0
  1  2  1  0  0  0  0
  2  3  1  0  0  0  0
  2  4  1  0  0  0  0
  2  5  1  0  0  0  0
  6  5  2  0  0  0  0
  5 31  1  0  0  0  0
  7  6  1  0  0  0  0
  8  7  2  0  0  0  0
  8  9  1  0  0  0  0
 30  8  1  0  0  0  0
  9 10  1  0  0  0  0
 11 10  1  0  0  0  0
 10 15  1  0  0  0  0
 12 11  1  0  0  0  0
 13 12  1  0  0  0  0
 14 13  1  0  0  0  0
 13 16  1  0  0  0  0
 15 14  1  0  0  0  0
 16 17  1  0  0  0  0
 16 23  1  0  0  0  0
 18 17  2  0  0  0  0
 17 22  1  0  0  0  0
 19 18  1  0  0  0  0
 20 19  2  0  0  0  0
 21 20  1  0  0  0  0
 22 21  2  0  0  0  0
 24 23  2  0  0  0  0
 23 29  1  0  0  0  0
 25 24  1  0  0  0  0
 26 25  2  0  0  0  0
 26 27  1  0  0  0  0
 28 26  1  0  0  0  0
 29 28  2  0  0  0  0
 31 30  2  0  0  0  0
M  END
> <Inchi_key>
MOYGZHXDRJNJEP-UHFFFAOYSA-N

> <Source>
Mulliner

> <ID>
HT0321

> <H_MFHB>
0

> <CAS>


> <Cholestasis>


> <Name>
buclizine

> <Class>
0


$$$$