
  -INDIGO-08031709442D

 26 29  0  0  0  0  0  0  0  0999 V2000
    1.7820   -2.4342    0.0000 O   0  0  0  0  0  0  0  0  0  0  0  0
    2.5367   -1.1378    0.0000 C   0  0  0  0  0  0  0  0  0  0  0  0
    1.7912    0.1639    0.0000 C   0  0  0  0  0  0  0  0  0  0  0  0
    2.5459    1.4602    0.0000 C   0  0  0  0  0  0  0  0  0  0  0  0
    4.0459    1.4549    0.0000 C   0  0  0  0  0  0  0  0  0  0  0  0
    5.0536    2.5660    0.0000 C   0  0  0  0  0  0  0  0  0  0  0  0
    6.4217    1.9510    0.0000 C   0  0  0  0  0  0  0  0  0  0  0  0
    6.2595    0.4598    0.0000 C   0  0  0  0  0  0  0  0  0  0  0  0
    6.7429   -0.9603    0.0000 O   0  0  0  0  0  0  0  0  0  0  0  0
    7.7402    0.2198    0.0000 C   0  0  0  0  0  0  0  0  0  0  0  0
    8.2729   -1.1825    0.0000 O   0  0  0  0  0  0  0  0  0  0  0  0
    8.6884    1.3821    0.0000 C   0  0  0  0  0  0  0  0  0  0  0  0
   10.1691    1.1422    0.0000 O   0  0  0  0  0  0  0  0  0  0  0  0
    4.7914    0.1531    0.0000 C   0  0  0  0  0  0  0  0  0  0  0  0
    4.0367   -1.1432    0.0000 C   0  0  0  0  0  0  0  0  0  0  0  0
    5.6472   -1.0787    0.0000 C   0  0  0  0  0  0  0  0  0  0  0  0
    1.8006    2.7620    0.0000 C   0  0  0  0  0  0  0  0  0  0  0  0
    0.3007    2.7673    0.0000 C   0  0  0  0  0  0  0  0  0  0  0  0
   -0.4540    1.4710    0.0000 C   0  0  0  0  0  0  0  0  0  0  0  0
   -1.9540    1.4764    0.0000 C   0  0  0  0  0  0  0  0  0  0  0  0
   -2.7087    0.1800    0.0000 C   0  0  0  0  0  0  0  0  0  0  0  0
   -4.2087    0.1854    0.0000 O   0  0  0  0  0  0  0  0  0  0  0  0
   -1.9632   -1.1217    0.0000 C   0  0  0  0  0  0  0  0  0  0  0  0
   -0.4635   -1.1271    0.0000 C   0  0  0  0  0  0  0  0  0  0  0  0
    0.2912    0.1693    0.0000 C   0  0  0  0  0  0  0  0  0  0  0  0
    1.0365   -1.1324    0.0000 C   0  0  0  0  0  0  0  0  0  0  0  0
  1  2  2  0  0  0  0
  3  2  1  0  0  0  0
  2 15  1  0  0  0  0
  3  4  1  0  0  0  0
 25  3  1  0  0  0  0
  5  4  1  0  0  0  0
  4 17  1  0  0  0  0
  6  5  1  0  0  0  0
  5 14  1  0  0  0  0
  7  6  1  0  0  0  0
  8  7  1  0  0  0  0
  8  9  1  0  0  0  0
  8 10  1  0  0  0  0
 14  8  1  0  0  0  0
 10 11  2  0  0  0  0
 10 12  1  0  0  0  0
 12 13  1  0  0  0  0
 15 14  1  0  0  0  0
 14 16  1  0  0  0  0
 17 18  1  0  0  0  0
 18 19  1  0  0  0  0
 20 19  2  0  0  0  0
 19 25  1  0  0  0  0
 21 20  1  0  0  0  0
 21 22  2  0  0  0  0
 23 21  1  0  0  0  0
 24 23  1  0  0  0  0
 25 24  1  0  0  0  0
 25 26  1  0  0  0  0
M  END
> <Inchi_key>
MFYSYFVPBJMHGN-UHFFFAOYSA-N

> <Source>
Kotsampasakou

> <ID>
EK0135

> <H_MFHB>


> <CAS>


> <Cholestasis>
0

> <Name>
cortisone

> <Class>
0

$$$$