
  -INDIGO-08031710012D

 26 28  0  0  0  0  0  0  0  0999 V2000
   -3.9864    3.9864    0.0000 C   0  0  0  0  0  0  0  0  0  0  0  0
   -3.9864    5.4864    0.0000 C   0  0  0  0  0  0  0  0  0  0  0  0
   -5.2855    4.7364    0.0000 C   0  0  0  0  0  0  0  0  0  0  0  0
   -4.7363    6.7855    0.0000 C   0  0  0  0  0  0  0  0  0  0  0  0
   -3.9864    8.0845    0.0000 C   0  0  0  0  0  0  0  0  0  0  0  0
   -2.4865    8.0845    0.0000 C   0  0  0  0  0  0  0  0  0  0  0  0
   -1.1873    8.8345    0.0000 C   0  0  0  0  0  0  0  0  0  0  0  0
   -2.4865    9.5845    0.0000 C   0  0  0  0  0  0  0  0  0  0  0  0
   -1.7363    6.7855    0.0000 C   0  0  0  0  0  0  0  0  0  0  0  0
   -0.2364    6.7855    0.0000 C   0  0  0  0  0  0  0  0  0  0  0  0
    0.5136    5.4864    0.0000 C   0  0  0  0  0  0  0  0  0  0  0  0
    2.0137    5.4864    0.0000 N   0  0  0  0  0  0  0  0  0  0  0  0
    2.7636    4.1874    0.0000 C   0  0  0  0  0  0  0  0  0  0  0  0
    2.0137    2.8884    0.0000 O   0  0  0  0  0  0  0  0  0  0  0  0
    4.2635    4.1874    0.0000 C   0  0  0  0  0  0  0  0  0  0  0  0
    5.0137    5.4864    0.0000 C   0  0  0  0  0  0  0  0  0  0  0  0
    6.5136    5.4864    0.0000 C   0  0  0  0  0  0  0  0  0  0  0  0
    7.2635    4.1874    0.0000 C   0  0  0  0  0  0  0  0  0  0  0  0
    6.5136    2.8884    0.0000 C   0  0  0  0  0  0  0  0  0  0  0  0
    5.0137    2.8884    0.0000 C   0  0  0  0  0  0  0  0  0  0  0  0
    8.7637    4.1874    0.0000 C   0  0  0  0  0  0  0  0  0  0  0  0
    9.5136    2.8884    0.0000 O   0  0  0  0  0  0  0  0  0  0  0  0
    9.5136    5.4864    0.0000 O   0  0  0  0  0  0  0  0  0  0  0  0
   -0.2364    4.1874    0.0000 C   0  0  0  0  0  0  0  0  0  0  0  0
   -1.7363    4.1874    0.0000 C   0  0  0  0  0  0  0  0  0  0  0  0
   -2.4865    5.4864    0.0000 C   0  0  0  0  0  0  0  0  0  0  0  0
  1  2  1  0  0  0  0
  2  3  1  0  0  0  0
  4  2  1  0  0  0  0
  2 26  1  0  0  0  0
  5  4  1  0  0  0  0
  6  5  1  0  0  0  0
  6  7  1  0  0  0  0
  6  8  1  0  0  0  0
  9  6  1  0  0  0  0
 10  9  1  0  0  0  0
  9 26  2  0  0  0  0
 11 10  2  0  0  0  0
 11 12  1  0  0  0  0
 24 11  1  0  0  0  0
 12 13  1  0  0  0  0
 13 14  2  0  0  0  0
 13 15  1  0  0  0  0
 16 15  2  0  0  0  0
 15 20  1  0  0  0  0
 17 16  1  0  0  0  0
 18 17  2  0  0  0  0
 19 18  1  0  0  0  0
 18 21  1  0  0  0  0
 20 19  2  0  0  0  0
 21 22  2  0  0  0  0
 21 23  1  0  0  0  0
 25 24  2  0  0  0  0
 26 25  1  0  0  0  0
M  END
> <Inchi_key>
MUTNCGKQJGXKEM-UHFFFAOYSA-N

> <Source>
Mulliner

> <ID>
HT1977

> <H_MFHB>
0

> <CAS>


> <Cholestasis>


> <Name>
tamibarotene

> <Class>
0

$$$$