
  -INDIGO-08031710012D

 27 29  0  0  0  0  0  0  0  0999 V2000
    2.2274   -3.6702    0.0000 C   0  0  0  0  0  0  0  0  0  0  0  0
    2.9198   -2.3396    0.0000 S   0  0  0  0  0  0  0  0  0  0  0  0
    4.4185   -2.2740    0.0000 C   0  0  0  0  0  0  0  0  0  0  0  0
    5.2244   -3.5390    0.0000 C   0  0  0  0  0  0  0  0  0  0  0  0
    6.7232   -3.4734    0.0000 C   0  0  0  0  0  0  0  0  0  0  0  0
    7.4155   -2.1427    0.0000 N   0  0  0  0  0  0  0  0  0  0  0  0
    7.5293   -4.7384    0.0000 C   0  0  0  0  0  0  0  0  0  0  0  0
    6.8367   -6.0690    0.0000 O   0  0  0  0  0  0  0  0  0  0  0  0
    9.0278   -4.6728    0.0000 O   0  0  0  0  0  0  0  0  0  0  0  0
    2.1139   -1.0746    0.0000 C   0  0  0  0  0  0  0  0  0  0  0  0
    0.6151   -1.1402    0.0000 C   0  0  0  0  0  0  0  0  0  0  0  0
   -0.2126   -2.3911    0.0000 O   0  0  0  0  0  0  0  0  0  0  0  0
   -1.6581   -1.9904    0.0000 C   0  0  0  0  0  0  0  0  0  0  0  0
   -1.7236   -0.4919    0.0000 C   0  0  0  0  0  0  0  0  0  0  0  0
   -2.9745    0.3359    0.0000 O   0  0  0  0  0  0  0  0  0  0  0  0
   -0.3188    0.0336    0.0000 C   0  0  0  0  0  0  0  0  0  0  0  0
    0.0820    1.4791    0.0000 O   0  0  0  0  0  0  0  0  0  0  0  0
   -2.8319   -2.9243    0.0000 N   0  0  0  0  0  0  0  0  0  0  0  0
   -2.7661   -4.4229    0.0000 C   0  0  0  0  0  0  0  0  0  0  0  0
   -4.1712   -4.9483    0.0000 N   0  0  0  0  0  0  0  0  0  0  0  0
   -5.1051   -3.7745    0.0000 C   0  0  0  0  0  0  0  0  0  0  0  0
   -6.6024   -3.6831    0.0000 C   0  0  0  0  0  0  0  0  0  0  0  0
   -7.4301   -4.9340    0.0000 N   0  0  0  0  0  0  0  0  0  0  0  0
   -7.2719   -2.3408    0.0000 N   0  0  0  0  0  0  0  0  0  0  0  0
   -6.4439   -1.0899    0.0000 C   0  0  0  0  0  0  0  0  0  0  0  0
   -4.9469   -1.1812    0.0000 N   0  0  0  0  0  0  0  0  0  0  0  0
   -4.2774   -2.5236    0.0000 C   0  0  0  0  0  0  0  0  0  0  0  0
  1  2  1  0  0  0  0
  2  3  1  0  0  0  0
  2 10  1  0  0  0  0
  3  4  1  0  0  0  0
  4  5  1  0  0  0  0
  5  6  1  0  0  0  0
  5  7  1  0  0  0  0
  7  8  2  0  0  0  0
  7  9  1  0  0  0  0
 10 11  1  0  0  0  0
 12 11  1  0  0  0  0
 11 16  1  0  0  0  0
 13 12  1  0  0  0  0
 14 13  1  0  0  0  0
 13 18  1  0  0  0  0
 14 15  1  0  0  0  0
 16 14  1  0  0  0  0
 16 17  1  0  0  0  0
 19 18  1  0  0  0  0
 18 27  1  0  0  0  0
 20 19  2  0  0  0  0
 21 20  1  0  0  0  0
 22 21  1  0  0  0  0
 21 27  2  0  0  0  0
 22 23  1  0  0  0  0
 24 22  2  0  0  0  0
 25 24  1  0  0  0  0
 26 25  2  0  0  0  0
 27 26  1  0  0  0  0
M  CHG  2   2   1   9  -1
M  END
> <Inchi_key>
MEFKEPWMEQBLKI-UHFFFAOYSA-N

> <Source>
Mulliner

> <ID>
HT0073

> <H_MFHB>
0

> <CAS>
97540-22-2

> <Cholestasis>


> <Name>
ademetionine;s-adenosylmethionine

> <Class>
0

$$$$