
  -INDIGO-08031710012D

 13 13  0  0  0  0  0  0  0  0999 V2000
    8.3044    2.2251    0.0000 C   0  0  0  0  0  0  0  0  0  0  0  0
    7.0053    1.4751    0.0000 O   0  0  0  0  0  0  0  0  0  0  0  0
    5.7063    2.2251    0.0000 C   0  0  0  0  0  0  0  0  0  0  0  0
    5.7063    3.7251    0.0000 C   0  0  0  0  0  0  0  0  0  0  0  0
    4.4072    4.4751    0.0000 C   0  0  0  0  0  0  0  0  0  0  0  0
    3.1082    3.7251    0.0000 C   0  0  0  0  0  0  0  0  0  0  0  0
    1.8092    4.4751    0.0000 O   0  0  0  0  0  0  0  0  0  0  0  0
    3.1082    2.2251    0.0000 C   0  0  0  0  0  0  0  0  0  0  0  0
    4.4072    1.4751    0.0000 C   0  0  0  0  0  0  0  0  0  0  0  0
    1.8092    1.4751    0.0000 C   0  0  0  0  0  0  0  0  0  0  0  0
    1.0592    2.7742    0.0000 C   0  0  0  0  0  0  0  0  0  0  0  0
    0.5101    0.7251    0.0000 C   0  0  0  0  0  0  0  0  0  0  0  0
    2.5592    0.1761    0.0000 C   0  0  0  0  0  0  0  0  0  0  0  0
  1  2  1  0  0  0  0
  2  3  1  0  0  0  0
  4  3  2  0  0  0  0
  3  9  1  0  0  0  0
  5  4  1  0  0  0  0
  6  5  2  0  0  0  0
  6  7  1  0  0  0  0
  8  6  1  0  0  0  0
  9  8  2  0  0  0  0
  8 10  1  0  0  0  0
 10 11  1  0  0  0  0
 10 12  1  0  0  0  0
 10 13  1  0  0  0  0
M  END
> <Inchi_key>
MRBKEAMVRSLQPH-UHFFFAOYSA-N

> <Source>
Mulliner

> <ID>
HT2775

> <H_MFHB>
0

> <CAS>


> <Cholestasis>


> <Name>


> <Class>
0

$$$$