

  -INDIGO-08031710012D

 27 33  0  0  0  0  0  0  0  0999 V2000
    2.4641   -4.2028    0.0000 C   0  0  0  0  0  0  0  0  0  0  0  0
    3.1966   -2.8938    0.0000 C   0  0  0  0  0  0  0  0  0  0  0  0
    4.0459   -4.1311    0.0000 C   0  0  0  0  0  0  0  0  0  0  0  0
    5.5371   -4.2967    0.0000 C   0  0  0  0  0  0  0  0  0  0  0  0
    6.3002   -3.0039    0.0000 C   0  0  0  0  0  0  0  0  0  0  0  0
    7.7998   -2.9721    0.0000 O   0  0  0  0  0  0  0  0  0  0  0  0
    5.4837   -1.7450    0.0000 C   0  0  0  0  0  0  0  0  0  0  0  0
    3.9885   -1.6185    0.0000 C   0  0  0  0  0  0  0  0  0  0  0  0
    3.2365   -0.3196    0.0000 C   0  0  0  0  0  0  0  0  0  0  0  0
    2.4693    0.9694    0.0000 C   0  0  0  0  0  0  0  0  0  0  0  0
    1.7366   -0.3396    0.0000 C   0  0  0  0  0  0  0  0  0  0  0  0
    0.8968   -1.5854    0.0000 C   0  0  0  0  0  0  0  0  0  0  0  0
    1.6960   -2.8562    0.0000 C   0  0  0  0  0  0  0  0  0  0  0  0
    0.8561   -4.0998    0.0000 C   0  0  0  0  0  0  0  0  0  0  0  0
   -0.6441   -4.1356    0.0000 C   0  0  0  0  0  0  0  0  0  0  0  0
   -1.4225   -2.8534    0.0000 C   0  0  0  0  0  0  0  0  0  0  0  0
    0.0773   -2.8334    0.0000 C   0  0  0  0  0  0  0  0  0  0  0  0
   -0.6042   -1.5950    0.0000 C   0  0  0  0  0  0  0  0  0  0  0  0
   -1.6193   -0.4896    0.0000 C   0  0  0  0  0  0  0  0  0  0  0  0
   -2.7713    0.4713    0.0000 C   0  0  0  0  0  0  0  0  0  0  0  0
   -3.0275   -1.0067    0.0000 C   0  0  0  0  0  0  0  0  0  0  0  0
   -2.8809   -2.4996    0.0000 C   0  0  0  0  0  0  0  0  0  0  0  0
   -4.2884   -1.9808    0.0000 C   0  0  0  0  0  0  0  0  0  0  0  0
   -5.2167   -3.1590    0.0000 C   0  0  0  0  0  0  0  0  0  0  0  0
   -4.3831   -4.4060    0.0000 C   0  0  0  0  0  0  0  0  0  0  0  0
   -4.9019   -5.8134    0.0000 O   0  0  0  0  0  0  0  0  0  0  0  0
   -2.9393   -3.9985    0.0000 O   0  0  0  0  0  0  0  0  0  0  0  0
  1  2  1  0  0  0  0
  3  2  1  0  0  0  0
  8  2  1  0  0  0  0
  2 13  1  0  0  0  0
  4  3  1  0  0  0  0
  5  4  1  0  0  0  0
  5  6  2  0  0  0  0
  7  5  1  0  0  0  0
  8  7  2  0  0  0  0
  9  8  1  0  0  0  0
 10  9  1  0  0  0  0
  9 11  1  0  0  0  0
 11 10  1  0  0  0  0
 12 11  1  0  0  0  0
 12 13  1  0  0  0  0
 18 12  1  0  0  0  0
 13 14  1  0  0  0  0
 14 15  1  0  0  0  0
 15 16  1  0  0  0  0
 16 17  1  0  0  0  0
 18 16  1  0  0  0  0
 16 22  1  0  0  0  0
 19 18  1  0  0  0  0
 20 19  1  0  0  0  0
 19 21  1  0  0  0  0
 21 20  1  0  0  0  0
 22 21  1  0  0  0  0
 23 22  1  0  0  0  0
 22 27  1  0  0  0  0
 24 23  1  0  0  0  0
 25 24  1  0  0  0  0
 25 26  2  0  0  0  0
 27 25  1  0  0  0  0
M  END
> <Inchi_key>
METQSPRSQINEEU-UHFFFAOYSA-N

> <Source>
Mulliner

> <ID>
HT0727

> <H_MFHB>
0

> <CAS>


> <Cholestasis>


> <Name>
drospirenone

> <Class>
0


$$$$