

  -INDIGO-08031710012D

 24 25  0  0  0  0  0  0  0  0999 V2000
   -0.2220   -0.2219    0.0000 C   0  0  0  0  0  0  0  0  0  0  0  0
   -0.2220   -1.7219    0.0000 O   0  0  0  0  0  0  0  0  0  0  0  0
    1.0772   -2.4719    0.0000 C   0  0  0  0  0  0  0  0  0  0  0  0
    2.3761   -1.7219    0.0000 C   0  0  0  0  0  0  0  0  0  0  0  0
    3.6753   -2.4719    0.0000 C   0  0  0  0  0  0  0  0  0  0  0  0
    3.6753   -3.9719    0.0000 C   0  0  0  0  0  0  0  0  0  0  0  0
    4.9744   -4.7219    0.0000 C   0  0  0  0  0  0  0  0  0  0  0  0
    4.9744   -6.2219    0.0000 C   0  0  0  0  0  0  0  0  0  0  0  0
    3.6753   -6.9719    0.0000 C   0  0  0  0  0  0  0  0  0  0  0  0
    2.3761   -6.2219    0.0000 C   0  0  0  0  0  0  0  0  0  0  0  0
    2.3761   -4.7219    0.0000 C   0  0  0  0  0  0  0  0  0  0  0  0
    1.0772   -3.9719    0.0000 C   0  0  0  0  0  0  0  0  0  0  0  0
   -0.2220   -4.7219    0.0000 C   0  0  0  0  0  0  0  0  0  0  0  0
   -1.5209   -5.4719    0.0000 F   0  0  0  0  0  0  0  0  0  0  0  0
    0.5281   -6.0209    0.0000 F   0  0  0  0  0  0  0  0  0  0  0  0
   -0.9718   -3.4228    0.0000 F   0  0  0  0  0  0  0  0  0  0  0  0
    6.2733   -3.9719    0.0000 C   0  0  0  0  0  0  0  0  0  0  0  0
    6.2733   -2.4719    0.0000 S   0  0  0  0  0  0  0  0  0  0  0  0
    7.5725   -4.7219    0.0000 N   0  0  0  0  0  0  0  0  0  0  0  0
    7.5725   -6.2219    0.0000 C   0  0  0  0  0  0  0  0  0  0  0  0
    8.8714   -3.9719    0.0000 C   0  0  0  0  0  0  0  0  0  0  0  0
   10.1704   -4.7219    0.0000 C   0  0  0  0  0  0  0  0  0  0  0  0
   10.1704   -6.2219    0.0000 O   0  0  0  0  0  0  0  0  0  0  0  0
   11.4695   -3.9719    0.0000 O   0  0  0  0  0  0  0  0  0  0  0  0
  1  2  1  0  0  0  0
  2  3  1  0  0  0  0
  4  3  2  0  0  0  0
  3 12  1  0  0  0  0
  5  4  1  0  0  0  0
  6  5  2  0  0  0  0
  7  6  1  0  0  0  0
  6 11  1  0  0  0  0
  8  7  2  0  0  0  0
  7 17  1  0  0  0  0
  9  8  1  0  0  0  0
 10  9  2  0  0  0  0
 11 10  1  0  0  0  0
 12 11  2  0  0  0  0
 12 13  1  0  0  0  0
 13 14  1  0  0  0  0
 13 15  1  0  0  0  0
 13 16  1  0  0  0  0
 17 18  2  0  0  0  0
 17 19  1  0  0  0  0
 19 20  1  0  0  0  0
 19 21  1  0  0  0  0
 21 22  1  0  0  0  0
 22 23  2  0  0  0  0
 22 24  1  0  0  0  0
M  END
> <Inchi_key>
LUBHDINQXIHVLS-UHFFFAOYSA-N

> <Source>
Mulliner

> <ID>
HT2087

> <H_MFHB>
0

> <CAS>
82964-04-3

> <Cholestasis>


> <Name>
tolrestat

> <Class>
0


$$$$