
  -INDIGO-08031710012D

 14 15  0  0  0  0  0  0  0  0999 V2000
    1.2857   -3.7115    0.0000 C   0  0  0  0  0  0  0  0  0  0  0  0
    0.5358   -2.4125    0.0000 C   0  0  0  0  0  0  0  0  0  0  0  0
    1.2857   -1.1135    0.0000 C   0  0  0  0  0  0  0  0  0  0  0  0
    0.5358    0.1856    0.0000 O   0  0  0  0  0  0  0  0  0  0  0  0
   -0.9642    0.1856    0.0000 C   0  0  0  0  0  0  0  0  0  0  0  0
   -1.7143   -1.1135    0.0000 C   0  0  0  0  0  0  0  0  0  0  0  0
   -0.9642   -2.4125    0.0000 N   0  0  0  0  0  0  0  0  0  0  0  0
   -1.7143   -3.7115    0.0000 C   0  0  0  0  0  0  0  0  0  0  0  0
    2.7857   -1.1135    0.0000 C   0  0  0  0  0  0  0  0  0  0  0  0
    3.5358   -2.4125    0.0000 C   0  0  0  0  0  0  0  0  0  0  0  0
    5.0358   -2.4125    0.0000 C   0  0  0  0  0  0  0  0  0  0  0  0
    5.7857   -1.1135    0.0000 C   0  0  0  0  0  0  0  0  0  0  0  0
    5.0358    0.1856    0.0000 C   0  0  0  0  0  0  0  0  0  0  0  0
    3.5358    0.1856    0.0000 C   0  0  0  0  0  0  0  0  0  0  0  0
  1  2  1  0  0  0  0
  3  2  1  0  0  0  0
  2  7  1  0  0  0  0
  4  3  1  0  0  0  0
  3  9  1  0  0  0  0
  5  4  1  0  0  0  0
  6  5  1  0  0  0  0
  7  6  1  0  0  0  0
  7  8  1  0  0  0  0
 10  9  2  0  0  0  0
  9 14  1  0  0  0  0
 11 10  1  0  0  0  0
 12 11  2  0  0  0  0
 13 12  1  0  0  0  0
 14 13  2  0  0  0  0
M  END
> <Inchi_key>
MFOCDFTXLCYLKU-UHFFFAOYSA-N

> <Source>
Mulliner , Kotsampasakou

> <ID>
EK0414;HT1643

> <H_MFHB>
0

> <CAS>


> <Cholestasis>
0

> <Name>
phendimetrazine tartrate;phendimetrazine

> <Class>
0

$$$$