

  -INDIGO-08031709442D

 30 33  0  0  0  0  0  0  0  0999 V2000
   -0.7330   -4.7575    0.0000 O   0  0  0  0  0  0  0  0  0  0  0  0
    0.5628   -4.0019    0.0000 C   0  0  0  0  0  0  0  0  0  0  0  0
    0.5563   -2.5019    0.0000 C   0  0  0  0  0  0  0  0  0  0  0  0
    1.8521   -1.7463    0.0000 C   0  0  0  0  0  0  0  0  0  0  0  0
    1.8456   -0.2463    0.0000 O   0  0  0  0  0  0  0  0  0  0  0  0
    3.1544   -2.4906    0.0000 C   0  0  0  0  0  0  0  0  0  0  0  0
    3.1608   -3.9907    0.0000 C   0  0  0  0  0  0  0  0  0  0  0  0
    4.4631   -4.7350    0.0000 C   0  0  0  0  0  0  0  0  0  0  0  0
    5.7589   -3.9794    0.0000 C   0  0  0  0  0  0  0  0  0  0  0  0
    7.0612   -4.7238    0.0000 C   0  0  0  0  0  0  0  0  0  0  0  0
    8.3570   -3.9681    0.0000 C   0  0  0  0  0  0  0  0  0  0  0  0
    8.6626   -2.4996    0.0000 C   0  0  0  0  0  0  0  0  0  0  0  0
   10.1536   -2.3363    0.0000 C   0  0  0  0  0  0  0  0  0  0  0  0
   10.7695   -3.7040    0.0000 C   0  0  0  0  0  0  0  0  0  0  0  0
   12.2381   -4.0095    0.0000 C   0  0  0  0  0  0  0  0  0  0  0  0
   13.2369   -2.8905    0.0000 C   0  0  0  0  0  0  0  0  0  0  0  0
   14.7055   -3.1960    0.0000 C   0  0  0  0  0  0  0  0  0  0  0  0
   15.7043   -2.0770    0.0000 C   0  0  0  0  0  0  0  0  0  0  0  0
   15.2347   -0.6524    0.0000 O   0  0  0  0  0  0  0  0  0  0  0  0
   17.1729   -2.3825    0.0000 C   0  0  0  0  0  0  0  0  0  0  0  0
   18.5976   -1.9128    0.0000 C   0  0  0  0  0  0  0  0  0  0  0  0
   18.2920   -3.3813    0.0000 C   0  0  0  0  0  0  0  0  0  0  0  0
   12.7077   -5.4341    0.0000 C   0  0  0  0  0  0  0  0  0  0  0  0
    9.6592   -4.7125    0.0000 C   0  0  0  0  0  0  0  0  0  0  0  0
    9.6657   -6.2125    0.0000 C   0  0  0  0  0  0  0  0  0  0  0  0
    8.3699   -6.9681    0.0000 C   0  0  0  0  0  0  0  0  0  0  0  0
    7.0677   -6.2237    0.0000 C   0  0  0  0  0  0  0  0  0  0  0  0
   11.0323   -5.3167    0.0000 C   0  0  0  0  0  0  0  0  0  0  0  0
    1.8651   -4.7462    0.0000 C   0  0  0  0  0  0  0  0  0  0  0  0
    1.8716   -6.2462    0.0000 C   0  0  0  0  0  0  0  0  0  0  0  0
  1  2  1  0  0  0  0
  3  2  1  0  0  0  0
  2 29  1  0  0  0  0
  4  3  1  0  0  0  0
  4  5  1  0  0  0  0
  6  4  1  0  0  0  0
  7  6  1  0  0  0  0
  7  8  2  0  0  0  0
 29  7  1  0  0  0  0
  8  9  1  0  0  0  0
  9 10  2  0  0  0  0
 11 10  1  0  0  0  0
 10 27  1  0  0  0  0
 12 11  1  0  0  0  0
 11 24  1  0  0  0  0
 13 12  1  0  0  0  0
 14 13  1  0  0  0  0
 14 15  1  0  0  0  0
 24 14  1  0  0  0  0
 15 16  1  0  0  0  0
 15 23  1  0  0  0  0
 16 17  2  0  0  0  0
 17 18  1  0  0  0  0
 18 19  1  0  0  0  0
 18 20  1  0  0  0  0
 21 20  1  0  0  0  0
 20 22  1  0  0  0  0
 22 21  1  0  0  0  0
 25 24  1  0  0  0  0
 24 28  1  0  0  0  0
 26 25  1  0  0  0  0
 27 26  1  0  0  0  0
 29 30  2  0  0  0  0
M  END
> <Inchi_key>
LWQQLNNNIPYSNX-NNEHDCEKSA-N, LWQQLNNNIPYSNX-NWLVXGAESA-N

> <Source>
Kotsampasakou,  Mulliner

> <ID>
HT0350;EK0082

> <H_MFHB>
0

> <CAS>


> <Cholestasis>
0

> <Name>
calcipotriol;calcipotriene

> <Class>
0


$$$$