
  -INDIGO-08031710012D

  7  6  0  0  0  0  0  0  0  0999 V2000
    2.0070    1.6359    0.0000 N   0  0  0  0  0  0  0  0  0  0  0  0
    2.0070    0.1359    0.0000 C   0  0  0  0  0  0  0  0  0  0  0  0
    3.3060   -0.6141    0.0000 C   0  0  0  0  0  0  0  0  0  0  0  0
    4.6051    0.1359    0.0000 O   0  0  0  0  0  0  0  0  0  0  0  0
    0.7080   -0.6141    0.0000 C   0  0  0  0  0  0  0  0  0  0  0  0
   -0.5911    0.1359    0.0000 O   0  0  0  0  0  0  0  0  0  0  0  0
    0.7080   -2.1141    0.0000 O   0  0  0  0  0  0  0  0  0  0  0  0
  1  2  1  0  0  0  0
  2  3  1  0  0  0  0
  2  5  1  0  0  0  0
  3  4  1  0  0  0  0
  5  6  2  0  0  0  0
  5  7  1  0  0  0  0
M  END
> <Inchi_key>
MTCFGRXMJLQNBG-UHFFFAOYSA-N

> <Source>
Mulliner

> <ID>
HT1250

> <H_MFHB>
0

> <CAS>


> <Cholestasis>


> <Name>
l-serine

> <Class>
0

$$$$