

  -INDIGO-08031710012D

 22 23  0  0  0  0  0  0  0  0999 V2000
    2.5830    2.5829    0.0000 C   0  0  0  0  0  0  0  0  0  0  0  0
    2.5830    1.0829    0.0000 C   0  0  0  0  0  0  0  0  0  0  0  0
    3.8819    0.3329    0.0000 C   0  0  0  0  0  0  0  0  0  0  0  0
    5.1809    1.0829    0.0000 C   0  0  0  0  0  0  0  0  0  0  0  0
    6.4799    0.3329    0.0000 C   0  0  0  0  0  0  0  0  0  0  0  0
    7.7791    1.0829    0.0000 C   0  0  0  0  0  0  0  0  0  0  0  0
    7.7791    2.5829    0.0000 C   0  0  0  0  0  0  0  0  0  0  0  0
    9.0781    3.3329    0.0000 O   0  0  0  0  0  0  0  0  0  0  0  0
    6.4799    3.3329    0.0000 C   0  0  0  0  0  0  0  0  0  0  0  0
    5.1809    2.5829    0.0000 C   0  0  0  0  0  0  0  0  0  0  0  0
    1.2840    0.3329    0.0000 N   0  0  0  0  0  0  0  0  0  0  0  0
   -0.0153    1.0829    0.0000 C   0  0  0  0  0  0  0  0  0  0  0  0
   -1.3142    0.3329    0.0000 C   0  0  0  0  0  0  0  0  0  0  0  0
   -1.3142   -1.1671    0.0000 O   0  0  0  0  0  0  0  0  0  0  0  0
   -2.6132    1.0829    0.0000 C   0  0  0  0  0  0  0  0  0  0  0  0
   -3.9122    0.3329    0.0000 C   0  0  0  0  0  0  0  0  0  0  0  0
   -5.2114    1.0829    0.0000 C   0  0  0  0  0  0  0  0  0  0  0  0
   -6.5104    0.3329    0.0000 O   0  0  0  0  0  0  0  0  0  0  0  0
   -5.2114    2.5829    0.0000 C   0  0  0  0  0  0  0  0  0  0  0  0
   -3.9122    3.3329    0.0000 C   0  0  0  0  0  0  0  0  0  0  0  0
   -3.9122    4.8329    0.0000 O   0  0  0  0  0  0  0  0  0  0  0  0
   -2.6132    2.5829    0.0000 C   0  0  0  0  0  0  0  0  0  0  0  0
  1  2  1  0  0  0  0
  2  3  1  0  0  0  0
  2 11  1  0  0  0  0
  3  4  1  0  0  0  0
  5  4  2  0  0  0  0
  4 10  1  0  0  0  0
  6  5  1  0  0  0  0
  7  6  2  0  0  0  0
  7  8  1  0  0  0  0
  9  7  1  0  0  0  0
 10  9  2  0  0  0  0
 11 12  1  0  0  0  0
 12 13  1  0  0  0  0
 13 14  1  0  0  0  0
 13 15  1  0  0  0  0
 16 15  2  0  0  0  0
 15 22  1  0  0  0  0
 17 16  1  0  0  0  0
 17 18  1  0  0  0  0
 19 17  2  0  0  0  0
 20 19  1  0  0  0  0
 20 21  1  0  0  0  0
 22 20  2  0  0  0  0
M  END
> <Inchi_key>
LSLYOANBFKQKPT-UHFFFAOYSA-N

> <Source>
Mulliner

> <ID>
HT0863

> <H_MFHB>
0

> <CAS>


> <Cholestasis>


> <Name>
fenoterol;fenoterol hbr

> <Class>
0


$$$$