
  -INDIGO-08031709442D

100103  0  0  0  0  0  0  0  0999 V2000
    1.1346   -8.7608    0.0000 S   0  0  0  0  0  0  0  0  0  0  0  0
   -0.2287   -8.1348    0.0000 C   0  0  0  0  0  0  0  0  0  0  0  0
   -1.2454   -9.2377    0.0000 C   0  0  0  0  0  0  0  0  0  0  0  0
   -0.5107  -10.5453    0.0000 N   0  0  0  0  0  0  0  0  0  0  0  0
    0.9603  -10.2507    0.0000 C   0  0  0  0  0  0  0  0  0  0  0  0
    2.0629  -11.2676    0.0000 C   0  0  0  0  0  0  0  0  0  0  0  0
    3.4950  -10.8208    0.0000 N   0  0  0  0  0  0  0  0  0  0  0  0
    1.7339  -12.7310    0.0000 C   0  0  0  0  0  0  0  0  0  0  0  0
    2.8366  -13.7475    0.0000 C   0  0  0  0  0  0  0  0  0  0  0  0
    2.5076  -15.2112    0.0000 C   0  0  0  0  0  0  0  0  0  0  0  0
    0.3019  -13.1778    0.0000 C   0  0  0  0  0  0  0  0  0  0  0  0
   -0.5233   -6.6639    0.0000 C   0  0  0  0  0  0  0  0  0  0  0  0
    0.6032   -5.6735    0.0000 O   0  0  0  0  0  0  0  0  0  0  0  0
   -1.9445   -6.1837    0.0000 N   0  0  0  0  0  0  0  0  0  0  0  0
   -2.2391   -4.7131    0.0000 C   0  0  0  0  0  0  0  0  0  0  0  0
   -1.1126   -3.7224    0.0000 C   0  0  0  0  0  0  0  0  0  0  0  0
   -1.4072   -2.2518    0.0000 C   0  0  0  0  0  0  0  0  0  0  0  0
   -0.2807   -1.2611    0.0000 C   0  0  0  0  0  0  0  0  0  0  0  0
   -2.8284   -1.7713    0.0000 C   0  0  0  0  0  0  0  0  0  0  0  0
   -3.6598   -4.2327    0.0000 C   0  0  0  0  0  0  0  0  0  0  0  0
   -4.7864   -5.2234    0.0000 O   0  0  0  0  0  0  0  0  0  0  0  0
   -3.9545   -2.7620    0.0000 N   0  0  0  0  0  0  0  0  0  0  0  0
   -5.3756   -2.2816    0.0000 C   0  0  0  0  0  0  0  0  0  0  0  0
   -5.6703   -0.8110    0.0000 C   0  0  0  0  0  0  0  0  0  0  0  0
   -4.5437    0.1795    0.0000 C   0  0  0  0  0  0  0  0  0  0  0  0
   -4.8384    1.6504    0.0000 C   0  0  0  0  0  0  0  0  0  0  0  0
   -6.2595    2.1305    0.0000 O   0  0  0  0  0  0  0  0  0  0  0  0
   -3.7122    2.6408    0.0000 O   0  0  0  0  0  0  0  0  0  0  0  0
   -6.5022   -3.2723    0.0000 C   0  0  0  0  0  0  0  0  0  0  0  0
   -6.2075   -4.7432    0.0000 O   0  0  0  0  0  0  0  0  0  0  0  0
   -7.9229   -2.7921    0.0000 N   0  0  0  0  0  0  0  0  0  0  0  0
   -8.2175   -1.3212    0.0000 C   0  0  0  0  0  0  0  0  0  0  0  0
   -7.3860   -0.0728    0.0000 C   0  0  0  0  0  0  0  0  0  0  0  0
   -8.0512    1.2715    0.0000 C   0  0  0  0  0  0  0  0  0  0  0  0
   -7.2197    2.5199    0.0000 C   0  0  0  0  0  0  0  0  0  0  0  0
   -5.8890   -0.1690    0.0000 C   0  0  0  0  0  0  0  0  0  0  0  0
   -9.6387   -0.8410    0.0000 C   0  0  0  0  0  0  0  0  0  0  0  0
   -9.9333    0.6296    0.0000 O   0  0  0  0  0  0  0  0  0  0  0  0
  -10.9832   -1.5064    0.0000 N   0  0  0  0  0  0  0  0  0  0  0  0
  -11.0791   -3.0032    0.0000 C   0  0  0  0  0  0  0  0  0  0  0  0
   -9.5817   -2.8438    0.0000 C   0  0  0  0  0  0  0  0  0  0  0  0
   -8.7515   -4.1376    0.0000 C   0  0  0  0  0  0  0  0  0  0  0  0
   -9.5092   -5.4330    0.0000 C   0  0  0  0  0  0  0  0  0  0  0  0
   -8.7837   -6.7427    0.0000 C   0  0  0  0  0  0  0  0  0  0  0  0
   -9.5712   -8.0215    0.0000 N   0  0  0  0  0  0  0  0  0  0  0  0
   -8.8713   -9.3447    0.0000 C   0  0  0  0  0  0  0  0  0  0  0  0
   -7.3735   -9.4250    0.0000 O   0  0  0  0  0  0  0  0  0  0  0  0
   -9.7242  -10.6079    0.0000 C   0  0  0  0  0  0  0  0  0  0  0  0
  -11.2233  -10.4392    0.0000 N   0  0  0  0  0  0  0  0  0  0  0  0
  -12.1126  -11.6353    0.0000 C   0  0  0  0  0  0  0  0  0  0  0  0
  -11.4982  -13.0037    0.0000 O   0  0  0  0  0  0  0  0  0  0  0  0
  -13.5946  -11.5051    0.0000 C   0  0  0  0  0  0  0  0  0  0  0  0
  -14.2471  -10.1476    0.0000 N   0  0  0  0  0  0  0  0  0  0  0  0
  -15.7366  -10.0429    0.0000 C   0  0  0  0  0  0  0  0  0  0  0  0
  -16.5681  -11.2913    0.0000 O   0  0  0  0  0  0  0  0  0  0  0  0
  -16.4130   -8.6968    0.0000 C   0  0  0  0  0  0  0  0  0  0  0  0
  -17.8916   -8.6030    0.0000 N   0  0  0  0  0  0  0  0  0  0  0  0
  -18.7675   -7.5584    0.0000 C   0  0  0  0  0  0  0  0  0  0  0  0
  -20.1291   -8.1871    0.0000 O   0  0  0  0  0  0  0  0  0  0  0  0
  -18.9930   -6.2204    0.0000 C   0  0  0  0  0  0  0  0  0  0  0  0
  -18.1175   -5.0249    0.0000 N   0  0  0  0  0  0  0  0  0  0  0  0
  -18.7122   -3.6487    0.0000 C   0  0  0  0  0  0  0  0  0  0  0  0
  -20.2088   -3.5447    0.0000 O   0  0  0  0  0  0  0  0  0  0  0  0
  -17.9641   -2.4190    0.0000 C   0  0  0  0  0  0  0  0  0  0  0  0
  -16.4822   -2.2978    0.0000 N   0  0  0  0  0  0  0  0  0  0  0  0
  -15.8414   -0.9315    0.0000 C   0  0  0  0  0  0  0  0  0  0  0  0
  -16.7055    0.2946    0.0000 O   0  0  0  0  0  0  0  0  0  0  0  0
  -14.3611   -0.7893    0.0000 C   0  0  0  0  0  0  0  0  0  0  0  0
  -13.4655   -1.9833    0.0000 N   0  0  0  0  0  0  0  0  0  0  0  0
  -11.9680   -1.8053    0.0000 C   0  0  0  0  0  0  0  0  0  0  0  0
  -11.3746   -0.4279    0.0000 O   0  0  0  0  0  0  0  0  0  0  0  0
  -13.7551    0.5827    0.0000 C   0  0  0  0  0  0  0  0  0  0  0  0
  -14.6406    1.7935    0.0000 C   0  0  0  0  0  0  0  0  0  0  0  0
  -14.0346    3.1658    0.0000 C   0  0  0  0  0  0  0  0  0  0  0  0
  -14.9202    4.3766    0.0000 N   0  0  0  0  0  0  0  0  0  0  0  0
  -18.7516   -1.1423    0.0000 C   0  0  0  0  0  0  0  0  0  0  0  0
  -18.0399    0.1780    0.0000 C   0  0  0  0  0  0  0  0  0  0  0  0
  -18.8278    1.4546    0.0000 C   0  0  0  0  0  0  0  0  0  0  0  0
  -20.2511   -1.1865    0.0000 C   0  0  0  0  0  0  0  0  0  0  0  0
  -20.4527   -5.8746    0.0000 C   0  0  0  0  0  0  0  0  0  0  0  0
  -21.4820   -6.9658    0.0000 C   0  0  0  0  0  0  0  0  0  0  0  0
  -21.0516   -8.4027    0.0000 C   0  0  0  0  0  0  0  0  0  0  0  0
  -22.0805   -9.4942    0.0000 C   0  0  0  0  0  0  0  0  0  0  0  0
  -23.5402   -9.1484    0.0000 C   0  0  0  0  0  0  0  0  0  0  0  0
  -23.9706   -7.7115    0.0000 C   0  0  0  0  0  0  0  0  0  0  0  0
  -22.9413   -6.6203    0.0000 C   0  0  0  0  0  0  0  0  0  0  0  0
  -17.2390   -9.9488    0.0000 C   0  0  0  0  0  0  0  0  0  0  0  0
  -18.7365   -9.8592    0.0000 C   0  0  0  0  0  0  0  0  0  0  0  0
  -19.6891  -11.0180    0.0000 N   0  0  0  0  0  0  0  0  0  0  0  0
  -21.0855  -10.4699    0.0000 C   0  0  0  0  0  0  0  0  0  0  0  0
  -20.9958   -8.9728    0.0000 N   0  0  0  0  0  0  0  0  0  0  0  0
  -19.5441   -8.5952    0.0000 C   0  0  0  0  0  0  0  0  0  0  0  0
  -14.4479  -12.7388    0.0000 C   0  0  0  0  0  0  0  0  0  0  0  0
  -13.8062  -14.0945    0.0000 C   0  0  0  0  0  0  0  0  0  0  0  0
  -12.3113  -14.2166    0.0000 O   0  0  0  0  0  0  0  0  0  0  0  0
  -14.6595  -15.3282    0.0000 O   0  0  0  0  0  0  0  0  0  0  0  0
   -9.0955  -11.9696    0.0000 C   0  0  0  0  0  0  0  0  0  0  0  0
   -7.6015  -12.1062    0.0000 C   0  0  0  0  0  0  0  0  0  0  0  0
   -6.9728  -13.4682    0.0000 O   0  0  0  0  0  0  0  0  0  0  0  0
   -6.7364  -10.8809    0.0000 N   0  0  0  0  0  0  0  0  0  0  0  0
  2  1  1  0  0  0  0
  1  5  1  0  0  0  0
  3  2  1  0  0  0  0
  2 12  1  0  0  0  0
  4  3  1  0  0  0  0
  5  4  2  0  0  0  0
  5  6  1  0  0  0  0
  6  7  1  0  0  0  0
  6  8  1  0  0  0  0
  8  9  1  0  0  0  0
  8 11  1  0  0  0  0
  9 10  1  0  0  0  0
 12 13  2  0  0  0  0
 12 14  1  0  0  0  0
 14 15  1  0  0  0  0
 15 16  1  0  0  0  0
 15 20  1  0  0  0  0
 16 17  1  0  0  0  0
 17 18  1  0  0  0  0
 17 19  1  0  0  0  0
 20 21  2  0  0  0  0
 20 22  1  0  0  0  0
 22 23  1  0  0  0  0
 23 24  1  0  0  0  0
 23 29  1  0  0  0  0
 24 25  1  0  0  0  0
 25 26  1  0  0  0  0
 26 27  1  0  0  0  0
 26 28  2  0  0  0  0
 29 30  2  0  0  0  0
 29 31  1  0  0  0  0
 31 32  1  0  0  0  0
 32 33  1  0  0  0  0
 32 37  1  0  0  0  0
 33 34  1  0  0  0  0
 33 36  1  0  0  0  0
 34 35  1  0  0  0  0
 37 38  2  0  0  0  0
 37 39  1  0  0  0  0
 39 40  1  0  0  0  0
 41 40  1  0  0  0  0
 40 70  1  0  0  0  0
 42 41  1  0  0  0  0
 43 42  1  0  0  0  0
 44 43  1  0  0  0  0
 45 44  1  0  0  0  0
 46 45  1  0  0  0  0
 46 47  2  0  0  0  0
 48 46  1  0  0  0  0
 49 48  1  0  0  0  0
 48 97  1  0  0  0  0
 50 49  1  0  0  0  0
 50 51  2  0  0  0  0
 52 50  1  0  0  0  0
 53 52  1  0  0  0  0
 52 93  1  0  0  0  0
 54 53  1  0  0  0  0
 54 55  2  0  0  0  0
 56 54  1  0  0  0  0
 57 56  1  0  0  0  0
 56 87  1  0  0  0  0
 58 57  1  0  0  0  0
 58 59  2  0  0  0  0
 60 58  1  0  0  0  0
 61 60  1  0  0  0  0
 60 80  1  0  0  0  0
 62 61  1  0  0  0  0
 62 63  2  0  0  0  0
 64 62  1  0  0  0  0
 65 64  1  0  0  0  0
 64 76  1  0  0  0  0
 66 65  1  0  0  0  0
 66 67  2  0  0  0  0
 68 66  1  0  0  0  0
 69 68  1  0  0  0  0
 68 72  1  0  0  0  0
 70 69  1  0  0  0  0
 70 71  2  0  0  0  0
 72 73  1  0  0  0  0
 73 74  1  0  0  0  0
 74 75  1  0  0  0  0
 76 77  1  0  0  0  0
 76 79  1  0  0  0  0
 77 78  1  0  0  0  0
 80 81  1  0  0  0  0
 82 81  2  0  0  0  0
 81 86  1  0  0  0  0
 83 82  1  0  0  0  0
 84 83  2  0  0  0  0
 85 84  1  0  0  0  0
 86 85  2  0  0  0  0
 87 88  1  0  0  0  0
 89 88  1  0  0  0  0
 88 92  2  0  0  0  0
 90 89  1  0  0  0  0
 91 90  2  0  0  0  0
 92 91  1  0  0  0  0
 93 94  1  0  0  0  0
 94 95  1  0  0  0  0
 94 96  2  0  0  0  0
 97 98  1  0  0  0  0
 98 99  2  0  0  0  0
 98100  1  0  0  0  0
M  END
> <Inchi_key>
MNJKVJAYSVAQLU-UHFFFAOYSA-N

> <Source>
Kotsampasakou

> <ID>
EK0051

> <H_MFHB>


> <CAS>


> <Cholestasis>
0

> <Name>
bacitracin

> <Class>
0

$$$$