

  -INDIGO-08031710012D

 23 23  0  0  0  0  0  0  0  0999 V2000
   -1.5289   -0.4097    0.0000 C   0  0  0  0  0  0  0  0  0  0  0  0
   -2.8282   -1.1597    0.0000 O   0  0  0  0  0  0  0  0  0  0  0  0
   -2.8282   -2.6597    0.0000 C   0  0  0  0  0  0  0  0  0  0  0  0
   -1.5289   -3.4097    0.0000 C   0  0  0  0  0  0  0  0  0  0  0  0
   -1.5289   -4.9097    0.0000 C   0  0  0  0  0  0  0  0  0  0  0  0
   -2.8282   -5.6597    0.0000 C   0  0  0  0  0  0  0  0  0  0  0  0
   -4.1272   -4.9097    0.0000 C   0  0  0  0  0  0  0  0  0  0  0  0
   -5.4262   -5.6597    0.0000 O   0  0  0  0  0  0  0  0  0  0  0  0
   -5.4262   -7.1597    0.0000 C   0  0  0  0  0  0  0  0  0  0  0  0
   -4.1272   -3.4097    0.0000 C   0  0  0  0  0  0  0  0  0  0  0  0
   -5.4262   -2.6597    0.0000 O   0  0  0  0  0  0  0  0  0  0  0  0
   -6.7252   -3.4097    0.0000 C   0  0  0  0  0  0  0  0  0  0  0  0
   -0.2299   -5.6597    0.0000 C   0  0  0  0  0  0  0  0  0  0  0  0
   -0.2299   -7.1597    0.0000 O   0  0  0  0  0  0  0  0  0  0  0  0
    1.0691   -4.9097    0.0000 N   0  0  0  0  0  0  0  0  0  0  0  0
    2.3681   -5.6597    0.0000 C   0  0  0  0  0  0  0  0  0  0  0  0
    3.6670   -4.9097    0.0000 C   0  0  0  0  0  0  0  0  0  0  0  0
    4.9663   -5.6597    0.0000 C   0  0  0  0  0  0  0  0  0  0  0  0
    6.2653   -4.9097    0.0000 C   0  0  0  0  0  0  0  0  0  0  0  0
    7.5643   -5.6597    0.0000 C   0  0  0  0  0  0  0  0  0  0  0  0
    8.8633   -4.9097    0.0000 C   0  0  0  0  0  0  0  0  0  0  0  0
   10.1623   -5.6597    0.0000 O   0  0  0  0  0  0  0  0  0  0  0  0
    8.8633   -3.4097    0.0000 O   0  0  0  0  0  0  0  0  0  0  0  0
  1  2  1  0  0  0  0
  2  3  1  0  0  0  0
  4  3  2  0  0  0  0
  3 10  1  0  0  0  0
  5  4  1  0  0  0  0
  6  5  2  0  0  0  0
  5 13  1  0  0  0  0
  7  6  1  0  0  0  0
  7  8  1  0  0  0  0
 10  7  2  0  0  0  0
  8  9  1  0  0  0  0
 10 11  1  0  0  0  0
 11 12  1  0  0  0  0
 13 14  2  0  0  0  0
 13 15  1  0  0  0  0
 15 16  1  0  0  0  0
 16 17  1  0  0  0  0
 17 18  1  0  0  0  0
 18 19  1  0  0  0  0
 19 20  1  0  0  0  0
 20 21  1  0  0  0  0
 21 22  2  0  0  0  0
 21 23  1  0  0  0  0
M  END
> <Inchi_key>
MPTXLVRHYGBOQY-UHFFFAOYSA-N

> <Source>
Mulliner

> <ID>
HT3480

> <H_MFHB>
0

> <CAS>


> <Cholestasis>


> <Name>


> <Class>
0


$$$$