
  -INDIGO-08031710012D

 19 21  0  0  0  0  0  0  0  0999 V2000
    3.7724    0.4907    0.0000 O   0  0  0  0  0  0  0  0  0  0  0  0
    3.7724   -1.0093    0.0000 C   0  0  0  0  0  0  0  0  0  0  0  0
    2.4734   -1.7593    0.0000 O   0  0  0  0  0  0  0  0  0  0  0  0
    1.1745   -1.0093    0.0000 C   0  0  0  0  0  0  0  0  0  0  0  0
    1.1745    0.4907    0.0000 C   0  0  0  0  0  0  0  0  0  0  0  0
   -0.1246    1.2407    0.0000 C   0  0  0  0  0  0  0  0  0  0  0  0
   -1.4236    0.4907    0.0000 C   0  0  0  0  0  0  0  0  0  0  0  0
   -1.4236   -1.0093    0.0000 C   0  0  0  0  0  0  0  0  0  0  0  0
   -2.7227   -1.7593    0.0000 C   0  0  0  0  0  0  0  0  0  0  0  0
   -2.7227   -3.2593    0.0000 C   0  0  0  0  0  0  0  0  0  0  0  0
   -1.4236   -4.0093    0.0000 C   0  0  0  0  0  0  0  0  0  0  0  0
   -0.1246   -3.2593    0.0000 N   0  0  0  0  0  0  0  0  0  0  0  0
   -0.1246   -1.7593    0.0000 C   0  0  0  0  0  0  0  0  0  0  0  0
    5.0715   -1.7593    0.0000 C   0  0  0  0  0  0  0  0  0  0  0  0
    5.0715   -3.2593    0.0000 C   0  0  0  0  0  0  0  0  0  0  0  0
    6.3705   -4.0093    0.0000 C   0  0  0  0  0  0  0  0  0  0  0  0
    7.6696   -3.2593    0.0000 C   0  0  0  0  0  0  0  0  0  0  0  0
    7.6696   -1.7593    0.0000 C   0  0  0  0  0  0  0  0  0  0  0  0
    6.3705   -1.0093    0.0000 C   0  0  0  0  0  0  0  0  0  0  0  0
  1  2  2  0  0  0  0
  2  3  1  0  0  0  0
  2 14  1  0  0  0  0
  3  4  1  0  0  0  0
  5  4  2  0  0  0  0
  4 13  1  0  0  0  0
  6  5  1  0  0  0  0
  7  6  2  0  0  0  0
  8  7  1  0  0  0  0
  9  8  1  0  0  0  0
  8 13  2  0  0  0  0
 10  9  2  0  0  0  0
 11 10  1  0  0  0  0
 12 11  2  0  0  0  0
 13 12  1  0  0  0  0
 15 14  2  0  0  0  0
 14 19  1  0  0  0  0
 16 15  1  0  0  0  0
 17 16  2  0  0  0  0
 18 17  1  0  0  0  0
 19 18  2  0  0  0  0
M  END
> <Inchi_key>
BHKPHCKISVSDGV-UHFFFAOYSA-N

> <Source>
Mulliner

> <ID>
HT3090

> <H_MFHB>
0

> <CAS>


> <Cholestasis>


> <Name>


> <Class>
0

$$$$