
  -INDIGO-08031710012D

 26 28  0  0  0  0  0  0  0  0999 V2000
   12.4980   -1.8612    0.0000 C   0  0  0  0  0  0  0  0  0  0  0  0
   11.0631   -1.4242    0.0000 C   0  0  0  0  0  0  0  0  0  0  0  0
   12.1039   -0.3441    0.0000 C   0  0  0  0  0  0  0  0  0  0  0  0
    9.9046   -0.4713    0.0000 S   0  0  0  0  0  0  0  0  0  0  0  0
    8.6405   -1.2785    0.0000 C   0  0  0  0  0  0  0  0  0  0  0  0
    7.1886   -1.6556    0.0000 C   0  0  0  0  0  0  0  0  0  0  0  0
    5.8954   -0.8955    0.0000 N   0  0  0  0  0  0  0  0  0  0  0  0
    4.5905   -1.6356    0.0000 C   0  0  0  0  0  0  0  0  0  0  0  0
    4.5790   -3.1355    0.0000 O   0  0  0  0  0  0  0  0  0  0  0  0
    3.2973   -0.8756    0.0000 C   0  0  0  0  0  0  0  0  0  0  0  0
    3.3088    0.6244    0.0000 N   0  0  0  0  0  0  0  0  0  0  0  0
    2.0155    1.3843    0.0000 N   0  0  0  0  0  0  0  0  0  0  0  0
    0.7223    2.1443    0.0000 N   0  0  0  0  0  0  0  0  0  0  0  0
    1.9926   -1.6156    0.0000 C   0  0  0  0  0  0  0  0  0  0  0  0
    1.9811   -3.1155    0.0000 C   0  0  0  0  0  0  0  0  0  0  0  0
    0.6762   -3.8554    0.0000 C   0  0  0  0  0  0  0  0  0  0  0  0
   -0.6170   -3.0956    0.0000 C   0  0  0  0  0  0  0  0  0  0  0  0
   -0.6055   -1.5955    0.0000 C   0  0  0  0  0  0  0  0  0  0  0  0
    0.6994   -0.8556    0.0000 C   0  0  0  0  0  0  0  0  0  0  0  0
    7.5657   -3.1075    0.0000 C   0  0  0  0  0  0  0  0  0  0  0  0
    6.8056   -4.4006    0.0000 O   0  0  0  0  0  0  0  0  0  0  0  0
    9.0174   -2.7303    0.0000 N   0  0  0  0  0  0  0  0  0  0  0  0
   10.5148   -2.8204    0.0000 C   0  0  0  0  0  0  0  0  0  0  0  0
   11.3220   -4.0845    0.0000 C   0  0  0  0  0  0  0  0  0  0  0  0
   12.8205   -4.0176    0.0000 O   0  0  0  0  0  0  0  0  0  0  0  0
   10.6306   -5.4158    0.0000 O   0  0  0  0  0  0  0  0  0  0  0  0
  1  2  1  0  0  0  0
  2  3  1  0  0  0  0
  4  2  1  0  0  0  0
  2 23  1  0  0  0  0
  5  4  1  0  0  0  0
  6  5  1  0  0  0  0
  5 22  1  0  0  0  0
  6  7  1  0  0  0  0
 20  6  1  0  0  0  0
  7  8  1  0  0  0  0
  8  9  2  0  0  0  0
  8 10  1  0  0  0  0
 10 11  1  0  0  0  0
 10 14  1  0  0  0  0
 11 12  2  0  0  0  0
 12 13  2  0  0  0  0
 15 14  2  0  0  0  0
 14 19  1  0  0  0  0
 16 15  1  0  0  0  0
 17 16  2  0  0  0  0
 18 17  1  0  0  0  0
 19 18  2  0  0  0  0
 20 21  2  0  0  0  0
 22 20  1  0  0  0  0
 23 22  1  0  0  0  0
 23 24  1  0  0  0  0
 24 25  2  0  0  0  0
 24 26  1  0  0  0  0
M  CHG  2  12   1  13  -1
M  END
> <Inchi_key>
ODFHGIPNGIAMDK-UHFFFAOYSA-N

> <Source>
Mulliner

> <ID>
HT0216

> <H_MFHB>
0

> <CAS>


> <Cholestasis>


> <Name>
azidocillin

> <Class>
0

$$$$