

  -INDIGO-08031710012D

 12 11  0  0  0  0  0  0  0  0999 V2000
   -0.3816    0.3816    0.0000 N   0  0  0  0  0  0  0  0  0  0  0  0
   -0.3816    1.8816    0.0000 C   0  0  0  0  0  0  0  0  0  0  0  0
    0.9176    2.6316    0.0000 C   0  0  0  0  0  0  0  0  0  0  0  0
    2.2165    1.8816    0.0000 C   0  0  0  0  0  0  0  0  0  0  0  0
    3.5155    2.6316    0.0000 C   0  0  0  0  0  0  0  0  0  0  0  0
    4.8146    1.8816    0.0000 N   0  0  0  0  0  0  0  0  0  0  0  0
    6.1136    2.6316    0.0000 C   0  0  0  0  0  0  0  0  0  0  0  0
    7.4127    1.8816    0.0000 N   0  0  0  0  0  0  0  0  0  0  0  0
    6.1136    4.1316    0.0000 N   0  0  0  0  0  0  0  0  0  0  0  0
   -1.6805    2.6316    0.0000 C   0  0  0  0  0  0  0  0  0  0  0  0
   -2.9796    1.8816    0.0000 O   0  0  0  0  0  0  0  0  0  0  0  0
   -1.6805    4.1316    0.0000 O   0  0  0  0  0  0  0  0  0  0  0  0
  1  2  1  0  0  0  0
  2  3  1  0  0  0  0
  2 10  1  0  0  0  0
  3  4  1  0  0  0  0
  4  5  1  0  0  0  0
  5  6  1  0  0  0  0
  6  7  2  0  0  0  0
  7  8  1  0  0  0  0
  7  9  1  0  0  0  0
 10 11  2  0  0  0  0
 10 12  1  0  0  0  0
M  END
> <Inchi_key>
ODKSFYDXXFIFQN-UHFFFAOYSA-N

> <Source>
Mulliner , Kotsampasakou

> <ID>
EK0292;HT1172

> <H_MFHB>
0

> <CAS>


> <Cholestasis>
0

> <Name>
l-arginine

> <Class>
0


$$$$