

  -INDIGO-08031710012D

 35 37  0  0  0  0  0  0  0  0999 V2000
    2.8657    4.9633    0.0000 C   0  0  0  0  0  0  0  0  0  0  0  0
    3.6157    3.6643    0.0000 C   0  0  0  0  0  0  0  0  0  0  0  0
    4.3656    2.3653    0.0000 C   0  0  0  0  0  0  0  0  0  0  0  0
    4.9146    4.4142    0.0000 O   0  0  0  0  0  0  0  0  0  0  0  0
    6.2136    3.6643    0.0000 C   0  0  0  0  0  0  0  0  0  0  0  0
    7.5126    4.4142    0.0000 C   0  0  0  0  0  0  0  0  0  0  0  0
    8.8118    3.6643    0.0000 C   0  0  0  0  0  0  0  0  0  0  0  0
    8.8118    2.1644    0.0000 C   0  0  0  0  0  0  0  0  0  0  0  0
   10.1108    1.4142    0.0000 Cl  0  0  0  0  0  0  0  0  0  0  0  0
    7.5126    1.4142    0.0000 C   0  0  0  0  0  0  0  0  0  0  0  0
    6.2136    2.1644    0.0000 C   0  0  0  0  0  0  0  0  0  0  0  0
    2.3164    2.9143    0.0000 C   0  0  0  0  0  0  0  0  0  0  0  0
    2.3164    1.4142    0.0000 O   0  0  0  0  0  0  0  0  0  0  0  0
    1.0174    3.6643    0.0000 O   0  0  0  0  0  0  0  0  0  0  0  0
   -0.2815    2.9143    0.0000 C   0  0  0  0  0  0  0  0  0  0  0  0
   -0.2815    1.4142    0.0000 C   0  0  0  0  0  0  0  0  0  0  0  0
   -1.5805    0.6642    0.0000 O   0  0  0  0  0  0  0  0  0  0  0  0
   -1.5805   -0.8357    0.0000 C   0  0  0  0  0  0  0  0  0  0  0  0
   -0.2815   -1.5856    0.0000 O   0  0  0  0  0  0  0  0  0  0  0  0
   -2.8795   -1.5856    0.0000 C   0  0  0  0  0  0  0  0  0  0  0  0
   -4.1787   -0.8357    0.0000 C   0  0  0  0  0  0  0  0  0  0  0  0
   -5.4777   -1.5856    0.0000 C   0  0  0  0  0  0  0  0  0  0  0  0
   -5.4777   -3.0857    0.0000 C   0  0  0  0  0  0  0  0  0  0  0  0
   -4.1787   -3.8357    0.0000 N   0  0  0  0  0  0  0  0  0  0  0  0
   -2.8795   -3.0857    0.0000 C   0  0  0  0  0  0  0  0  0  0  0  0
   -1.5805    3.6643    0.0000 C   0  0  0  0  0  0  0  0  0  0  0  0
   -1.5805    5.1644    0.0000 O   0  0  0  0  0  0  0  0  0  0  0  0
   -2.8795    5.9144    0.0000 C   0  0  0  0  0  0  0  0  0  0  0  0
   -4.1787    5.1644    0.0000 O   0  0  0  0  0  0  0  0  0  0  0  0
   -2.8795    7.4143    0.0000 C   0  0  0  0  0  0  0  0  0  0  0  0
   -4.1787    8.1642    0.0000 C   0  0  0  0  0  0  0  0  0  0  0  0
   -4.1787    9.6643    0.0000 C   0  0  0  0  0  0  0  0  0  0  0  0
   -2.8795   10.4143    0.0000 C   0  0  0  0  0  0  0  0  0  0  0  0
   -1.5805    9.6643    0.0000 N   0  0  0  0  0  0  0  0  0  0  0  0
   -1.5805    8.1642    0.0000 C   0  0  0  0  0  0  0  0  0  0  0  0
  1  2  1  0  0  0  0
  2  3  1  0  0  0  0
  2  4  1  0  0  0  0
  2 12  1  0  0  0  0
  4  5  1  0  0  0  0
  6  5  2  0  0  0  0
  5 11  1  0  0  0  0
  7  6  1  0  0  0  0
  8  7  2  0  0  0  0
  8  9  1  0  0  0  0
 10  8  1  0  0  0  0
 11 10  2  0  0  0  0
 12 13  2  0  0  0  0
 12 14  1  0  0  0  0
 14 15  1  0  0  0  0
 15 16  1  0  0  0  0
 15 26  1  0  0  0  0
 16 17  1  0  0  0  0
 17 18  1  0  0  0  0
 18 19  2  0  0  0  0
 18 20  1  0  0  0  0
 21 20  2  0  0  0  0
 20 25  1  0  0  0  0
 22 21  1  0  0  0  0
 23 22  2  0  0  0  0
 24 23  1  0  0  0  0
 25 24  2  0  0  0  0
 26 27  1  0  0  0  0
 27 28  1  0  0  0  0
 28 29  2  0  0  0  0
 28 30  1  0  0  0  0
 31 30  2  0  0  0  0
 30 35  1  0  0  0  0
 32 31  1  0  0  0  0
 33 32  2  0  0  0  0
 34 33  1  0  0  0  0
 35 34  2  0  0  0  0
M  END
> <Inchi_key>
BFYRHDVAEJIBON-UHFFFAOYSA-N

> <Source>
Mulliner

> <ID>
HT0287

> <H_MFHB>
0

> <CAS>
69047-39-8

> <Cholestasis>


> <Name>
binifibrate

> <Class>
0


$$$$