
  -INDIGO-08031710012D

 17 19  0  0  0  0  0  0  0  0999 V2000
    2.4443   -3.5043    0.0000 O   0  0  0  0  0  0  0  0  0  0  0  0
    1.9809   -2.0778    0.0000 C   0  0  0  0  0  0  0  0  0  0  0  0
    2.8624   -0.8642    0.0000 C   0  0  0  0  0  0  0  0  0  0  0  0
    1.9809    0.3493    0.0000 C   0  0  0  0  0  0  0  0  0  0  0  0
    2.4443    1.7759    0.0000 O   0  0  0  0  0  0  0  0  0  0  0  0
    0.5542   -0.1142    0.0000 C   0  0  0  0  0  0  0  0  0  0  0  0
   -0.7449    0.6358    0.0000 C   0  0  0  0  0  0  0  0  0  0  0  0
   -2.0439   -0.1142    0.0000 C   0  0  0  0  0  0  0  0  0  0  0  0
   -2.0439   -1.6142    0.0000 C   0  0  0  0  0  0  0  0  0  0  0  0
   -0.7449   -2.3642    0.0000 C   0  0  0  0  0  0  0  0  0  0  0  0
    0.5542   -1.6142    0.0000 C   0  0  0  0  0  0  0  0  0  0  0  0
    4.3625   -0.8642    0.0000 C   0  0  0  0  0  0  0  0  0  0  0  0
    5.1124   -2.1633    0.0000 C   0  0  0  0  0  0  0  0  0  0  0  0
    6.6125   -2.1633    0.0000 C   0  0  0  0  0  0  0  0  0  0  0  0
    7.3624   -0.8642    0.0000 C   0  0  0  0  0  0  0  0  0  0  0  0
    6.6125    0.4348    0.0000 C   0  0  0  0  0  0  0  0  0  0  0  0
    5.1124    0.4348    0.0000 C   0  0  0  0  0  0  0  0  0  0  0  0
  1  2  2  0  0  0  0
  3  2  1  0  0  0  0
  2 11  1  0  0  0  0
  4  3  1  0  0  0  0
  3 12  1  0  0  0  0
  4  5  2  0  0  0  0
  6  4  1  0  0  0  0
  7  6  2  0  0  0  0
  6 11  1  0  0  0  0
  8  7  1  0  0  0  0
  9  8  2  0  0  0  0
 10  9  1  0  0  0  0
 11 10  2  0  0  0  0
 13 12  2  0  0  0  0
 12 17  1  0  0  0  0
 14 13  1  0  0  0  0
 15 14  2  0  0  0  0
 16 15  1  0  0  0  0
 17 16  2  0  0  0  0
M  END
> <Inchi_key>
NFBAXHOPROOJAW-UHFFFAOYSA-N

> <Source>
Mulliner

> <ID>
HT1648

> <H_MFHB>
0

> <CAS>


> <Cholestasis>


> <Name>
phenindione

> <Class>
0

$$$$