
  -INDIGO-08031710012D

 26 27  0  0  0  0  0  0  0  0999 V2000
   -2.0767    2.0766    0.0000 O   0  0  0  0  0  0  0  0  0  0  0  0
   -2.0767    3.5766    0.0000 C   0  0  0  0  0  0  0  0  0  0  0  0
   -0.7775    4.3266    0.0000 C   0  0  0  0  0  0  0  0  0  0  0  0
   -0.7775    5.8266    0.0000 N   0  0  0  0  0  0  0  0  0  0  0  0
    0.5215    6.5766    0.0000 C   0  0  0  0  0  0  0  0  0  0  0  0
    1.8205    5.8266    0.0000 C   0  0  0  0  0  0  0  0  0  0  0  0
    3.1194    6.5766    0.0000 C   0  0  0  0  0  0  0  0  0  0  0  0
    4.4187    5.8266    0.0000 C   0  0  0  0  0  0  0  0  0  0  0  0
    4.4187    4.3266    0.0000 C   0  0  0  0  0  0  0  0  0  0  0  0
    5.7177    3.5766    0.0000 O   0  0  0  0  0  0  0  0  0  0  0  0
    7.0166    4.3266    0.0000 C   0  0  0  0  0  0  0  0  0  0  0  0
    8.3156    3.5766    0.0000 C   0  0  0  0  0  0  0  0  0  0  0  0
    9.6146    4.3266    0.0000 C   0  0  0  0  0  0  0  0  0  0  0  0
    9.6146    5.8266    0.0000 C   0  0  0  0  0  0  0  0  0  0  0  0
    8.3156    6.5766    0.0000 C   0  0  0  0  0  0  0  0  0  0  0  0
    7.0166    5.8266    0.0000 C   0  0  0  0  0  0  0  0  0  0  0  0
   10.9138    6.5766    0.0000 N   0  0  0  0  0  0  0  0  0  0  0  0
   10.9138    8.0766    0.0000 O   0  0  0  0  0  0  0  0  0  0  0  0
   12.2128    5.8266    0.0000 O   0  0  0  0  0  0  0  0  0  0  0  0
    3.1194    3.5766    0.0000 C   0  0  0  0  0  0  0  0  0  0  0  0
    1.8205    4.3266    0.0000 C   0  0  0  0  0  0  0  0  0  0  0  0
   -2.0767    6.5766    0.0000 C   0  0  0  0  0  0  0  0  0  0  0  0
   -3.3757    5.8266    0.0000 O   0  0  0  0  0  0  0  0  0  0  0  0
   -2.0767    8.0766    0.0000 C   0  0  0  0  0  0  0  0  0  0  0  0
   -0.7775    8.8266    0.0000 Cl  0  0  0  0  0  0  0  0  0  0  0  0
   -3.3757    8.8266    0.0000 Cl  0  0  0  0  0  0  0  0  0  0  0  0
  1  2  1  0  0  0  0
  2  3  1  0  0  0  0
  3  4  1  0  0  0  0
  4  5  1  0  0  0  0
  4 22  1  0  0  0  0
  5  6  1  0  0  0  0
  7  6  2  0  0  0  0
  6 21  1  0  0  0  0
  8  7  1  0  0  0  0
  9  8  2  0  0  0  0
  9 10  1  0  0  0  0
 20  9  1  0  0  0  0
 10 11  1  0  0  0  0
 12 11  2  0  0  0  0
 11 16  1  0  0  0  0
 13 12  1  0  0  0  0
 14 13  2  0  0  0  0
 15 14  1  0  0  0  0
 14 17  1  0  0  0  0
 16 15  2  0  0  0  0
 17 18  2  0  0  0  0
 17 19  1  0  0  0  0
 21 20  2  0  0  0  0
 22 23  2  0  0  0  0
 22 24  1  0  0  0  0
 24 25  1  0  0  0  0
 24 26  1  0  0  0  0
M  CHG  2  17   1  19  -1
M  END
> <Inchi_key>
ODCUSWJXZDHLKV-UHFFFAOYSA-N

> <Source>
Mulliner

> <ID>
HT3753

> <H_MFHB>
0

> <CAS>


> <Cholestasis>


> <Name>


> <Class>
0

$$$$