

  -INDIGO-08031709442D

 34 34  0  0  0  0  0  0  0  0999 V2000
    0.0001    0.0001    0.0000 I   0  0  0  0  0  0  0  0  0  0  0  0
    1.5000    0.0001    0.0000 C   0  0  0  0  0  0  0  0  0  0  0  0
    2.2501   -1.2990    0.0000 C   0  0  0  0  0  0  0  0  0  0  0  0
    1.5000   -2.5981    0.0000 C   0  0  0  0  0  0  0  0  0  0  0  0
    2.2501   -3.8971    0.0000 O   0  0  0  0  0  0  0  0  0  0  0  0
    0.0001   -2.5981    0.0000 N   0  0  0  0  0  0  0  0  0  0  0  0
   -0.7499   -3.8971    0.0000 C   0  0  0  0  0  0  0  0  0  0  0  0
   -2.2501   -3.8971    0.0000 C   0  0  0  0  0  0  0  0  0  0  0  0
   -2.9999   -2.5981    0.0000 O   0  0  0  0  0  0  0  0  0  0  0  0
   -2.9999   -5.1962    0.0000 C   0  0  0  0  0  0  0  0  0  0  0  0
   -4.5000   -5.1962    0.0000 O   0  0  0  0  0  0  0  0  0  0  0  0
    3.7499   -1.2990    0.0000 C   0  0  0  0  0  0  0  0  0  0  0  0
    4.5000   -2.5981    0.0000 I   0  0  0  0  0  0  0  0  0  0  0  0
    4.5000    0.0001    0.0000 C   0  0  0  0  0  0  0  0  0  0  0  0
    6.0001    0.0001    0.0000 N   0  0  0  0  0  0  0  0  0  0  0  0
    6.7499   -1.2990    0.0000 C   0  0  0  0  0  0  0  0  0  0  0  0
    6.0001   -2.5981    0.0000 O   0  0  0  0  0  0  0  0  0  0  0  0
    8.2501   -1.2990    0.0000 C   0  0  0  0  0  0  0  0  0  0  0  0
    6.7499    1.2990    0.0000 C   0  0  0  0  0  0  0  0  0  0  0  0
    8.2501    1.2990    0.0000 C   0  0  0  0  0  0  0  0  0  0  0  0
    9.0001    0.0001    0.0000 O   0  0  0  0  0  0  0  0  0  0  0  0
    9.0001    2.5981    0.0000 C   0  0  0  0  0  0  0  0  0  0  0  0
   10.5000    2.5981    0.0000 O   0  0  0  0  0  0  0  0  0  0  0  0
    3.7499    1.2990    0.0000 C   0  0  0  0  0  0  0  0  0  0  0  0
    4.5000    2.5981    0.0000 I   0  0  0  0  0  0  0  0  0  0  0  0
    2.2501    1.2990    0.0000 C   0  0  0  0  0  0  0  0  0  0  0  0
    1.5000    2.5981    0.0000 C   0  0  0  0  0  0  0  0  0  0  0  0
    2.2501    3.8971    0.0000 O   0  0  0  0  0  0  0  0  0  0  0  0
    0.0001    2.5981    0.0000 N   0  0  0  0  0  0  0  0  0  0  0  0
   -0.7499    3.8971    0.0000 C   0  0  0  0  0  0  0  0  0  0  0  0
   -2.2501    3.8971    0.0000 C   0  0  0  0  0  0  0  0  0  0  0  0
   -2.9999    2.5981    0.0000 O   0  0  0  0  0  0  0  0  0  0  0  0
   -2.9999    5.1962    0.0000 C   0  0  0  0  0  0  0  0  0  0  0  0
   -4.5000    5.1962    0.0000 O   0  0  0  0  0  0  0  0  0  0  0  0
  1  2  1  0  0  0  0
  3  2  2  0  0  0  0
  2 26  1  0  0  0  0
  3  4  1  0  0  0  0
 12  3  1  0  0  0  0
  4  5  2  0  0  0  0
  4  6  1  0  0  0  0
  6  7  1  0  0  0  0
  7  8  1  0  0  0  0
  8  9  1  0  0  0  0
  8 10  1  0  0  0  0
 10 11  1  0  0  0  0
 12 13  1  0  0  0  0
 14 12  2  0  0  0  0
 14 15  1  0  0  0  0
 24 14  1  0  0  0  0
 15 16  1  0  0  0  0
 15 19  1  0  0  0  0
 16 17  2  0  0  0  0
 16 18  1  0  0  0  0
 19 20  1  0  0  0  0
 20 21  1  0  0  0  0
 20 22  1  0  0  0  0
 22 23  1  0  0  0  0
 24 25  1  0  0  0  0
 26 24  2  0  0  0  0
 26 27  1  0  0  0  0
 27 28  2  0  0  0  0
 27 29  1  0  0  0  0
 29 30  1  0  0  0  0
 30 31  1  0  0  0  0
 31 32  1  0  0  0  0
 31 33  1  0  0  0  0
 33 34  1  0  0  0  0
M  END
> <Inchi_key>
NTHXOOBQLCIOLC-UHFFFAOYSA-N

> <Source>
Kotsampasakou

> <ID>
EK0273

> <H_MFHB>


> <CAS>


> <Cholestasis>
0

> <Name>
iohexol

> <Class>
0


$$$$