

  -INDIGO-08031710012D

 31 35  0  0  0  0  0  0  0  0999 V2000
   13.6357    6.6391    0.0000 C   0  0  0  0  0  0  0  0  0  0  0  0
   12.7107    5.4583    0.0000 C   0  0  0  0  0  0  0  0  0  0  0  0
   13.1221    4.0159    0.0000 N   0  0  0  0  0  0  0  0  0  0  0  0
   11.8774    3.1788    0.0000 C   0  0  0  0  0  0  0  0  0  0  0  0
   10.6966    4.1039    0.0000 C   0  0  0  0  0  0  0  0  0  0  0  0
    9.2191    3.8454    0.0000 C   0  0  0  0  0  0  0  0  0  0  0  0
    8.2566    4.9958    0.0000 C   0  0  0  0  0  0  0  0  0  0  0  0
    8.7715    6.4047    0.0000 C   0  0  0  0  0  0  0  0  0  0  0  0
   10.2490    6.6631    0.0000 C   0  0  0  0  0  0  0  0  0  0  0  0
   11.2115    5.5127    0.0000 C   0  0  0  0  0  0  0  0  0  0  0  0
    6.7789    4.7374    0.0000 C   0  0  0  0  0  0  0  0  0  0  0  0
    6.7768    3.2374    0.0000 C   0  0  0  0  0  0  0  0  0  0  0  0
    5.4769    2.4890    0.0000 C   0  0  0  0  0  0  0  0  0  0  0  0
    4.1787    3.2409    0.0000 C   0  0  0  0  0  0  0  0  0  0  0  0
    2.8788    2.4927    0.0000 C   0  0  0  0  0  0  0  0  0  0  0  0
    2.8768    0.9927    0.0000 O   0  0  0  0  0  0  0  0  0  0  0  0
    1.5806    3.2444    0.0000 C   0  0  0  0  0  0  0  0  0  0  0  0
    1.5828    4.7445    0.0000 C   0  0  0  0  0  0  0  0  0  0  0  0
    2.8828    5.4927    0.0000 N   0  0  0  0  0  0  0  0  0  0  0  0
    2.8848    6.9926    0.0000 C   0  0  0  0  0  0  0  0  0  0  0  0
    3.6365    8.2907    0.0000 C   0  0  0  0  0  0  0  0  0  0  0  0
    2.1367    8.2927    0.0000 C   0  0  0  0  0  0  0  0  0  0  0  0
    4.1810    4.7408    0.0000 C   0  0  0  0  0  0  0  0  0  0  0  0
    5.4809    5.4891    0.0000 C   0  0  0  0  0  0  0  0  0  0  0  0
    4.9698    6.8994    0.0000 O   0  0  0  0  0  0  0  0  0  0  0  0
    5.9355    8.0471    0.0000 C   0  0  0  0  0  0  0  0  0  0  0  0
    5.4243    9.4573    0.0000 F   0  0  0  0  0  0  0  0  0  0  0  0
    7.4125    7.7847    0.0000 F   0  0  0  0  0  0  0  0  0  0  0  0
    0.2806    2.4961    0.0000 C   0  0  0  0  0  0  0  0  0  0  0  0
    0.2786    0.9962    0.0000 O   0  0  0  0  0  0  0  0  0  0  0  0
   -1.0173    3.2480    0.0000 O   0  0  0  0  0  0  0  0  0  0  0  0
  1  2  1  0  0  0  0
  3  2  1  0  0  0  0
  2 10  1  0  0  0  0
  4  3  1  0  0  0  0
  5  4  1  0  0  0  0
  6  5  2  0  0  0  0
  5 10  1  0  0  0  0
  7  6  1  0  0  0  0
  8  7  2  0  0  0  0
  7 11  1  0  0  0  0
  9  8  1  0  0  0  0
 10  9  2  0  0  0  0
 12 11  2  0  0  0  0
 11 24  1  0  0  0  0
 13 12  1  0  0  0  0
 14 13  2  0  0  0  0
 15 14  1  0  0  0  0
 14 23  1  0  0  0  0
 15 16  2  0  0  0  0
 17 15  1  0  0  0  0
 18 17  2  0  0  0  0
 17 29  1  0  0  0  0
 19 18  1  0  0  0  0
 19 20  1  0  0  0  0
 23 19  1  0  0  0  0
 21 20  1  0  0  0  0
 20 22  1  0  0  0  0
 22 21  1  0  0  0  0
 24 23  2  0  0  0  0
 24 25  1  0  0  0  0
 25 26  1  0  0  0  0
 26 27  1  0  0  0  0
 26 28  1  0  0  0  0
 29 30  2  0  0  0  0
 29 31  1  0  0  0  0
M  END
> <Inchi_key>
NJDRXTDGYFKORP-UHFFFAOYSA-N

> <Source>
Mulliner

> <ID>
HT0966

> <H_MFHB>
0

> <CAS>


> <Cholestasis>


> <Name>
garenoxacin

> <Class>
0


$$$$