
  -INDIGO-08031710012D

 25 27  0  0  0  0  0  0  0  0999 V2000
    1.6801   -1.6800    0.0000 C   0  0  0  0  0  0  0  0  0  0  0  0
    1.6801   -0.1800    0.0000 N   0  0  0  0  0  0  0  0  0  0  0  0
    2.9791    0.5700    0.0000 C   0  0  0  0  0  0  0  0  0  0  0  0
    4.2781   -0.1800    0.0000 C   0  0  0  0  0  0  0  0  0  0  0  0
    5.5770    0.5700    0.0000 C   0  0  0  0  0  0  0  0  0  0  0  0
    5.5770    2.0700    0.0000 O   0  0  0  0  0  0  0  0  0  0  0  0
    6.8763   -0.1800    0.0000 C   0  0  0  0  0  0  0  0  0  0  0  0
    8.1752    0.5700    0.0000 C   0  0  0  0  0  0  0  0  0  0  0  0
    9.4742   -0.1800    0.0000 C   0  0  0  0  0  0  0  0  0  0  0  0
    9.4742   -1.6800    0.0000 C   0  0  0  0  0  0  0  0  0  0  0  0
    8.1752   -2.4300    0.0000 C   0  0  0  0  0  0  0  0  0  0  0  0
    6.8763   -1.6800    0.0000 C   0  0  0  0  0  0  0  0  0  0  0  0
    2.9791    2.0700    0.0000 C   0  0  0  0  0  0  0  0  0  0  0  0
    1.6801    2.8200    0.0000 C   0  0  0  0  0  0  0  0  0  0  0  0
    0.3809    2.0700    0.0000 C   0  0  0  0  0  0  0  0  0  0  0  0
    0.3809    0.5700    0.0000 C   0  0  0  0  0  0  0  0  0  0  0  0
   -0.9181   -0.1800    0.0000 C   0  0  0  0  0  0  0  0  0  0  0  0
   -2.2170    0.5700    0.0000 C   0  0  0  0  0  0  0  0  0  0  0  0
   -2.2170    2.0700    0.0000 O   0  0  0  0  0  0  0  0  0  0  0  0
   -3.5163   -0.1800    0.0000 C   0  0  0  0  0  0  0  0  0  0  0  0
   -4.8152    0.5700    0.0000 C   0  0  0  0  0  0  0  0  0  0  0  0
   -6.1142   -0.1800    0.0000 C   0  0  0  0  0  0  0  0  0  0  0  0
   -6.1142   -1.6800    0.0000 C   0  0  0  0  0  0  0  0  0  0  0  0
   -4.8152   -2.4300    0.0000 C   0  0  0  0  0  0  0  0  0  0  0  0
   -3.5163   -1.6800    0.0000 C   0  0  0  0  0  0  0  0  0  0  0  0
  1  2  1  0  0  0  0
  3  2  1  0  0  0  0
  2 16  1  0  0  0  0
  3  4  1  0  0  0  0
 13  3  1  0  0  0  0
  4  5  1  0  0  0  0
  5  6  1  0  0  0  0
  5  7  1  0  0  0  0
  8  7  2  0  0  0  0
  7 12  1  0  0  0  0
  9  8  1  0  0  0  0
 10  9  2  0  0  0  0
 11 10  1  0  0  0  0
 12 11  2  0  0  0  0
 14 13  1  0  0  0  0
 15 14  1  0  0  0  0
 16 15  1  0  0  0  0
 16 17  1  0  0  0  0
 17 18  1  0  0  0  0
 18 19  2  0  0  0  0
 18 20  1  0  0  0  0
 21 20  2  0  0  0  0
 20 25  1  0  0  0  0
 22 21  1  0  0  0  0
 23 22  2  0  0  0  0
 24 23  1  0  0  0  0
 25 24  2  0  0  0  0
M  END
> <Inchi_key>
MXYUKLILVYORSK-UHFFFAOYSA-N

> <Source>
Mulliner

> <ID>
HT3543

> <H_MFHB>
0

> <CAS>


> <Cholestasis>


> <Name>


> <Class>
0

$$$$