
  -INDIGO-08031710012D

 10  9  0  0  0  0  0  0  0  0999 V2000
   -0.0736   -0.0736    0.0000 O   0  0  0  0  0  0  0  0  0  0  0  0
   -0.0736   -1.5736    0.0000 C   0  0  0  0  0  0  0  0  0  0  0  0
   -1.3726   -2.3236    0.0000 O   0  0  0  0  0  0  0  0  0  0  0  0
    1.2255   -2.3236    0.0000 C   0  0  0  0  0  0  0  0  0  0  0  0
    1.2255   -3.8236    0.0000 S   0  0  0  0  0  0  0  0  0  0  0  0
    2.5245   -1.5736    0.0000 C   0  0  0  0  0  0  0  0  0  0  0  0
    2.5245   -0.0736    0.0000 S   0  0  0  0  0  0  0  0  0  0  0  0
    3.8236   -2.3236    0.0000 C   0  0  0  0  0  0  0  0  0  0  0  0
    5.1226   -1.5736    0.0000 O   0  0  0  0  0  0  0  0  0  0  0  0
    3.8236   -3.8236    0.0000 O   0  0  0  0  0  0  0  0  0  0  0  0
  1  2  1  0  0  0  0
  2  3  2  0  0  0  0
  2  4  1  0  0  0  0
  4  5  1  0  0  0  0
  4  6  1  0  0  0  0
  6  7  1  0  0  0  0
  6  8  1  0  0  0  0
  8  9  2  0  0  0  0
  8 10  1  0  0  0  0
M  END
> <Inchi_key>
ACTRVOBWPAIOHC-UHFFFAOYSA-N

> <Source>
Mulliner

> <ID>
HT1923

> <H_MFHB>
0

> <CAS>
304-55-2;0

> <Cholestasis>


> <Name>
succimer;2,3-dimercaptosuccinic acid

> <Class>
0

$$$$