
  -INDIGO-08031710012D

 25 27  0  0  0  0  0  0  0  0999 V2000
    4.9676    0.4230    0.0000 C   0  0  0  0  0  0  0  0  0  0  0  0
    4.9795    1.9230    0.0000 C   0  0  0  0  0  0  0  0  0  0  0  0
    6.2848    2.6624    0.0000 O   0  0  0  0  0  0  0  0  0  0  0  0
    7.5777    1.9019    0.0000 C   0  0  0  0  0  0  0  0  0  0  0  0
    8.8827    2.6413    0.0000 C   0  0  0  0  0  0  0  0  0  0  0  0
   10.1756    1.8808    0.0000 C   0  0  0  0  0  0  0  0  0  0  0  0
   10.1635    0.3809    0.0000 C   0  0  0  0  0  0  0  0  0  0  0  0
    8.8584   -0.3586    0.0000 C   0  0  0  0  0  0  0  0  0  0  0  0
    7.5655    0.4020    0.0000 C   0  0  0  0  0  0  0  0  0  0  0  0
    3.6866    2.6835    0.0000 C   0  0  0  0  0  0  0  0  0  0  0  0
    3.6990    4.1835    0.0000 O   0  0  0  0  0  0  0  0  0  0  0  0
    2.3818    1.9441    0.0000 N   0  0  0  0  0  0  0  0  0  0  0  0
    1.0887    2.7046    0.0000 C   0  0  0  0  0  0  0  0  0  0  0  0
   -0.3632    2.3282    0.0000 C   0  0  0  0  0  0  0  0  0  0  0  0
   -1.6278    1.5214    0.0000 S   0  0  0  0  0  0  0  0  0  0  0  0
   -2.7860    2.4748    0.0000 C   0  0  0  0  0  0  0  0  0  0  0  0
   -4.2298    2.8811    0.0000 C   0  0  0  0  0  0  0  0  0  0  0  0
   -3.8130    1.3817    0.0000 C   0  0  0  0  0  0  0  0  0  0  0  0
   -2.2369    3.8708    0.0000 C   0  0  0  0  0  0  0  0  0  0  0  0
   -0.7396    3.7801    0.0000 N   0  0  0  0  0  0  0  0  0  0  0  0
    0.7123    4.1565    0.0000 C   0  0  0  0  0  0  0  0  0  0  0  0
    1.4727    5.4495    0.0000 O   0  0  0  0  0  0  0  0  0  0  0  0
   -3.0438    5.1354    0.0000 C   0  0  0  0  0  0  0  0  0  0  0  0
   -2.3519    6.4663    0.0000 O   0  0  0  0  0  0  0  0  0  0  0  0
   -4.5422    5.0691    0.0000 O   0  0  0  0  0  0  0  0  0  0  0  0
  1  2  1  0  0  0  0
  2  3  1  0  0  0  0
  2 10  1  0  0  0  0
  3  4  1  0  0  0  0
  5  4  2  0  0  0  0
  4  9  1  0  0  0  0
  6  5  1  0  0  0  0
  7  6  2  0  0  0  0
  8  7  1  0  0  0  0
  9  8  2  0  0  0  0
 10 11  2  0  0  0  0
 10 12  1  0  0  0  0
 12 13  1  0  0  0  0
 14 13  1  0  0  0  0
 13 21  1  0  0  0  0
 15 14  1  0  0  0  0
 14 20  1  0  0  0  0
 16 15  1  0  0  0  0
 16 17  1  0  0  0  0
 16 18  1  0  0  0  0
 19 16  1  0  0  0  0
 20 19  1  0  0  0  0
 19 23  1  0  0  0  0
 21 20  1  0  0  0  0
 21 22  2  0  0  0  0
 23 24  2  0  0  0  0
 23 25  1  0  0  0  0
M  END
> <Inchi_key>
NONJJLVGHLVQQM-UHFFFAOYSA-N

> <Source>
Mulliner

> <ID>
HT3659

> <H_MFHB>
0

> <CAS>


> <Cholestasis>


> <Name>


> <Class>
0

$$$$