

  -INDIGO-08031709442D

 28 32  0  0  0  0  0  0  0  0999 V2000
    5.1215   -1.0598    0.0000 Cl  0  0  0  0  0  0  0  0  0  0  0  0
    5.8717   -2.3588    0.0000 C   0  0  0  0  0  0  0  0  0  0  0  0
    7.3716   -2.3588    0.0000 C   0  0  0  0  0  0  0  0  0  0  0  0
    8.1217   -3.6578    0.0000 C   0  0  0  0  0  0  0  0  0  0  0  0
    9.5888   -3.9697    0.0000 N   0  0  0  0  0  0  0  0  0  0  0  0
    9.7456   -5.4615    0.0000 C   0  0  0  0  0  0  0  0  0  0  0  0
   11.0446   -6.2115    0.0000 O   0  0  0  0  0  0  0  0  0  0  0  0
    8.3752   -6.0716    0.0000 C   0  0  0  0  0  0  0  0  0  0  0  0
    7.3716   -4.9569    0.0000 C   0  0  0  0  0  0  0  0  0  0  0  0
    5.8717   -4.9569    0.0000 C   0  0  0  0  0  0  0  0  0  0  0  0
    5.1215   -3.6578    0.0000 C   0  0  0  0  0  0  0  0  0  0  0  0
    3.6217   -3.6578    0.0000 C   0  0  0  0  0  0  0  0  0  0  0  0
    2.8715   -4.9569    0.0000 C   0  0  0  0  0  0  0  0  0  0  0  0
    1.3717   -4.9569    0.0000 N   0  0  0  0  0  0  0  0  0  0  0  0
    0.6215   -6.2558    0.0000 C   0  0  0  0  0  0  0  0  0  0  0  0
   -0.8783   -6.2558    0.0000 C   0  0  0  0  0  0  0  0  0  0  0  0
   -1.6285   -4.9569    0.0000 N   0  0  0  0  0  0  0  0  0  0  0  0
   -0.8783   -3.6578    0.0000 C   0  0  0  0  0  0  0  0  0  0  0  0
    0.6215   -3.6578    0.0000 C   0  0  0  0  0  0  0  0  0  0  0  0
   -3.1283   -4.9569    0.0000 C   0  0  0  0  0  0  0  0  0  0  0  0
   -4.0101   -3.7434    0.0000 N   0  0  0  0  0  0  0  0  0  0  0  0
   -5.4366   -4.2069    0.0000 S   0  0  0  0  0  0  0  0  0  0  0  0
   -5.4366   -5.7069    0.0000 C   0  0  0  0  0  0  0  0  0  0  0  0
   -4.0101   -6.1704    0.0000 C   0  0  0  0  0  0  0  0  0  0  0  0
   -3.6981   -7.6376    0.0000 C   0  0  0  0  0  0  0  0  0  0  0  0
   -4.8129   -8.6413    0.0000 C   0  0  0  0  0  0  0  0  0  0  0  0
   -6.2394   -8.1777    0.0000 C   0  0  0  0  0  0  0  0  0  0  0  0
   -6.5514   -6.7106    0.0000 C   0  0  0  0  0  0  0  0  0  0  0  0
  1  2  1  0  0  0  0
  3  2  2  0  0  0  0
  2 11  1  0  0  0  0
  4  3  1  0  0  0  0
  5  4  1  0  0  0  0
  4  9  2  0  0  0  0
  6  5  1  0  0  0  0
  6  7  2  0  0  0  0
  8  6  1  0  0  0  0
  9  8  1  0  0  0  0
 10  9  1  0  0  0  0
 11 10  2  0  0  0  0
 11 12  1  0  0  0  0
 12 13  1  0  0  0  0
 13 14  1  0  0  0  0
 15 14  1  0  0  0  0
 14 19  1  0  0  0  0
 16 15  1  0  0  0  0
 17 16  1  0  0  0  0
 18 17  1  0  0  0  0
 17 20  1  0  0  0  0
 19 18  1  0  0  0  0
 21 20  2  0  0  0  0
 20 24  1  0  0  0  0
 22 21  1  0  0  0  0
 23 22  1  0  0  0  0
 23 24  2  0  0  0  0
 28 23  1  0  0  0  0
 24 25  1  0  0  0  0
 25 26  2  0  0  0  0
 26 27  1  0  0  0  0
 27 28  2  0  0  0  0
M  END
> <Inchi_key>
MVWVFYHBGMAFLY-UHFFFAOYSA-N

> <Source>
Kotsampasakou

> <ID>
EK0575

> <H_MFHB>


> <CAS>


> <Cholestasis>
0

> <Name>
ziprasidone

> <Class>
0


$$$$