
  -INDIGO-08031710012D

 14 14  0  0  0  0  0  0  0  0999 V2000
    0.3789   -0.6562    0.0000 C   0  0  0  0  0  0  0  0  0  0  0  0
    1.1288    0.6429    0.0000 C   0  0  0  0  0  0  0  0  0  0  0  0
    1.8788    1.9419    0.0000 N   0  0  0  0  0  0  0  0  0  0  0  0
    2.4280   -0.1071    0.0000 C   0  0  0  0  0  0  0  0  0  0  0  0
    3.7268    0.6429    0.0000 C   0  0  0  0  0  0  0  0  0  0  0  0
    3.7268    2.1429    0.0000 C   0  0  0  0  0  0  0  0  0  0  0  0
    5.0260    2.8929    0.0000 C   0  0  0  0  0  0  0  0  0  0  0  0
    6.3250    2.1429    0.0000 C   0  0  0  0  0  0  0  0  0  0  0  0
    7.6240    2.8929    0.0000 O   0  0  0  0  0  0  0  0  0  0  0  0
    6.3250    0.6429    0.0000 C   0  0  0  0  0  0  0  0  0  0  0  0
    5.0260   -0.1071    0.0000 C   0  0  0  0  0  0  0  0  0  0  0  0
   -0.1702    1.3929    0.0000 C   0  0  0  0  0  0  0  0  0  0  0  0
   -1.4692    0.6429    0.0000 O   0  0  0  0  0  0  0  0  0  0  0  0
   -0.1702    2.8929    0.0000 O   0  0  0  0  0  0  0  0  0  0  0  0
  1  2  1  0  0  0  0
  2  3  1  0  0  0  0
  2  4  1  0  0  0  0
  2 12  1  0  0  0  0
  4  5  1  0  0  0  0
  6  5  2  0  0  0  0
  5 11  1  0  0  0  0
  7  6  1  0  0  0  0
  8  7  2  0  0  0  0
  8  9  1  0  0  0  0
 10  8  1  0  0  0  0
 11 10  2  0  0  0  0
 12 13  2  0  0  0  0
 12 14  1  0  0  0  0
M  END
> <Inchi_key>
NHTGHBARYWONDQ-UHFFFAOYSA-N

> <Source>
Mulliner , Kotsampasakou

> <ID>
EK0345;HT1384

> <H_MFHB>
0

> <CAS>


> <Cholestasis>
0

> <Name>
metyrosine;metirosine

> <Class>
0

$$$$