

  -INDIGO-08031710012D

 46 49  0  0  0  0  0  0  0  0999 V2000
    7.1976    2.3527    0.0000 C   0  0  0  0  0  0  0  0  0  0  0  0
    7.1976    0.8527    0.0000 S   0  0  0  0  0  0  0  0  0  0  0  0
    5.8983    0.1028    0.0000 C   0  0  0  0  0  0  0  0  0  0  0  0
    5.8983   -1.3972    0.0000 C   0  0  0  0  0  0  0  0  0  0  0  0
    7.1976   -2.1473    0.0000 N   0  0  0  0  0  0  0  0  0  0  0  0
    8.4965   -1.3972    0.0000 C   0  0  0  0  0  0  0  0  0  0  0  0
    8.4965    0.1028    0.0000 O   0  0  0  0  0  0  0  0  0  0  0  0
    9.7954   -2.1473    0.0000 C   0  0  0  0  0  0  0  0  0  0  0  0
   11.0947   -1.3972    0.0000 O   0  0  0  0  0  0  0  0  0  0  0  0
   12.3936   -2.1473    0.0000 C   0  0  0  0  0  0  0  0  0  0  0  0
   12.3936   -3.6473    0.0000 C   0  0  0  0  0  0  0  0  0  0  0  0
   13.6925   -4.3972    0.0000 C   0  0  0  0  0  0  0  0  0  0  0  0
   14.9918   -3.6473    0.0000 C   0  0  0  0  0  0  0  0  0  0  0  0
   14.9918   -2.1473    0.0000 C   0  0  0  0  0  0  0  0  0  0  0  0
   16.2907   -1.3972    0.0000 C   0  0  0  0  0  0  0  0  0  0  0  0
   16.2907    0.1028    0.0000 N   0  0  0  0  0  0  0  0  0  0  0  0
   14.9918    0.8527    0.0000 C   0  0  0  0  0  0  0  0  0  0  0  0
   13.6925    0.1028    0.0000 C   0  0  0  0  0  0  0  0  0  0  0  0
   13.6925   -1.3972    0.0000 C   0  0  0  0  0  0  0  0  0  0  0  0
    4.5994   -2.1473    0.0000 C   0  0  0  0  0  0  0  0  0  0  0  0
    4.5994   -3.6473    0.0000 O   0  0  0  0  0  0  0  0  0  0  0  0
    3.3005   -1.3972    0.0000 N   0  0  0  0  0  0  0  0  0  0  0  0
    2.0012   -2.1473    0.0000 C   0  0  0  0  0  0  0  0  0  0  0  0
    0.7023   -1.3972    0.0000 C   0  0  0  0  0  0  0  0  0  0  0  0
    0.7023    0.1028    0.0000 C   0  0  0  0  0  0  0  0  0  0  0  0
   -0.5966    0.8527    0.0000 C   0  0  0  0  0  0  0  0  0  0  0  0
   -0.5966    2.3527    0.0000 C   0  0  0  0  0  0  0  0  0  0  0  0
    0.7023    3.1028    0.0000 C   0  0  0  0  0  0  0  0  0  0  0  0
    2.0012    2.3527    0.0000 C   0  0  0  0  0  0  0  0  0  0  0  0
    2.0012    0.8527    0.0000 C   0  0  0  0  0  0  0  0  0  0  0  0
    2.0012   -3.6473    0.0000 C   0  0  0  0  0  0  0  0  0  0  0  0
    3.3005   -4.3972    0.0000 O   0  0  0  0  0  0  0  0  0  0  0  0
    0.7023   -4.3972    0.0000 C   0  0  0  0  0  0  0  0  0  0  0  0
   -0.5966   -3.6473    0.0000 O   0  0  0  0  0  0  0  0  0  0  0  0
    0.7023   -5.8972    0.0000 N   0  0  0  0  0  0  0  0  0  0  0  0
    1.9157   -6.7787    0.0000 C   0  0  0  0  0  0  0  0  0  0  0  0
    1.4525   -8.2054    0.0000 S   0  0  0  0  0  0  0  0  0  0  0  0
   -0.0476   -8.2054    0.0000 C   0  0  0  0  0  0  0  0  0  0  0  0
   -0.5114   -6.7787    0.0000 C   0  0  0  0  0  0  0  0  0  0  0  0
   -1.9377   -6.3153    0.0000 C   0  0  0  0  0  0  0  0  0  0  0  0
   -3.0525   -7.3190    0.0000 O   0  0  0  0  0  0  0  0  0  0  0  0
   -2.2498   -4.8481    0.0000 N   0  0  0  0  0  0  0  0  0  0  0  0
   -3.6763   -4.3846    0.0000 C   0  0  0  0  0  0  0  0  0  0  0  0
   -5.1029   -3.9209    0.0000 C   0  0  0  0  0  0  0  0  0  0  0  0
   -3.2128   -2.9579    0.0000 C   0  0  0  0  0  0  0  0  0  0  0  0
   -4.1399   -5.8111    0.0000 C   0  0  0  0  0  0  0  0  0  0  0  0
  1  2  1  0  0  0  0
  2  3  1  0  0  0  0
  3  4  1  0  0  0  0
  4  5  1  0  0  0  0
  4 20  1  0  0  0  0
  5  6  1  0  0  0  0
  6  7  2  0  0  0  0
  6  8  1  0  0  0  0
  8  9  1  0  0  0  0
  9 10  1  0  0  0  0
 11 10  2  0  0  0  0
 10 19  1  0  0  0  0
 12 11  1  0  0  0  0
 13 12  2  0  0  0  0
 14 13  1  0  0  0  0
 15 14  1  0  0  0  0
 14 19  2  0  0  0  0
 16 15  2  0  0  0  0
 17 16  1  0  0  0  0
 18 17  2  0  0  0  0
 19 18  1  0  0  0  0
 20 21  2  0  0  0  0
 20 22  1  0  0  0  0
 22 23  1  0  0  0  0
 23 24  1  0  0  0  0
 23 31  1  0  0  0  0
 24 25  1  0  0  0  0
 26 25  2  0  0  0  0
 25 30  1  0  0  0  0
 27 26  1  0  0  0  0
 28 27  2  0  0  0  0
 29 28  1  0  0  0  0
 30 29  2  0  0  0  0
 31 32  1  0  0  0  0
 31 33  1  0  0  0  0
 33 34  2  0  0  0  0
 33 35  1  0  0  0  0
 36 35  1  0  0  0  0
 35 39  1  0  0  0  0
 37 36  1  0  0  0  0
 38 37  1  0  0  0  0
 39 38  1  0  0  0  0
 39 40  1  0  0  0  0
 40 41  2  0  0  0  0
 40 42  1  0  0  0  0
 42 43  1  0  0  0  0
 43 44  1  0  0  0  0
 43 45  1  0  0  0  0
 43 46  1  0  0  0  0
M  END
> <Inchi_key>
NJBBLOIWMSYVCQ-UHFFFAOYSA-N

> <Source>
Mulliner

> <ID>
HT3983

> <H_MFHB>
0

> <CAS>
147318-81-8

> <Cholestasis>


> <Name>


> <Class>
0


$$$$