
  -INDIGO-08031710012D

 21 22  0  0  0  0  0  0  0  0999 V2000
   12.0587   -3.1549    0.0000 C   0  0  0  0  0  0  0  0  0  0  0  0
   10.7508   -2.4203    0.0000 C   0  0  0  0  0  0  0  0  0  0  0  0
   10.7333   -0.9204    0.0000 N   0  0  0  0  0  0  0  0  0  0  0  0
   12.0233   -0.1551    0.0000 C   0  0  0  0  0  0  0  0  0  0  0  0
   12.0055    1.3448    0.0000 C   0  0  0  0  0  0  0  0  0  0  0  0
    9.4254   -0.1858    0.0000 C   0  0  0  0  0  0  0  0  0  0  0  0
    8.1352   -0.9511    0.0000 C   0  0  0  0  0  0  0  0  0  0  0  0
    6.8275   -0.2165    0.0000 O   0  0  0  0  0  0  0  0  0  0  0  0
    5.5374   -0.9818    0.0000 C   0  0  0  0  0  0  0  0  0  0  0  0
    5.5551   -2.4817    0.0000 O   0  0  0  0  0  0  0  0  0  0  0  0
    4.2297   -0.2472    0.0000 C   0  0  0  0  0  0  0  0  0  0  0  0
    5.0316    1.0204    0.0000 C   0  0  0  0  0  0  0  0  0  0  0  0
    4.0739    2.1749    0.0000 C   0  0  0  0  0  0  0  0  0  0  0  0
    2.6801    1.6208    0.0000 C   0  0  0  0  0  0  0  0  0  0  0  0
    2.7761    0.1239    0.0000 C   0  0  0  0  0  0  0  0  0  0  0  0
    3.6841   -1.6445    0.0000 C   0  0  0  0  0  0  0  0  0  0  0  0
    4.4039   -2.9605    0.0000 C   0  0  0  0  0  0  0  0  0  0  0  0
    3.6241   -4.2419    0.0000 C   0  0  0  0  0  0  0  0  0  0  0  0
    2.1246   -4.2072    0.0000 C   0  0  0  0  0  0  0  0  0  0  0  0
    1.4047   -2.8912    0.0000 C   0  0  0  0  0  0  0  0  0  0  0  0
    2.1845   -1.6099    0.0000 C   0  0  0  0  0  0  0  0  0  0  0  0
  1  2  1  0  0  0  0
  2  3  1  0  0  0  0
  3  4  1  0  0  0  0
  3  6  1  0  0  0  0
  4  5  1  0  0  0  0
  6  7  1  0  0  0  0
  7  8  1  0  0  0  0
  8  9  1  0  0  0  0
  9 10  2  0  0  0  0
  9 11  1  0  0  0  0
 12 11  1  0  0  0  0
 11 15  1  0  0  0  0
 11 16  1  0  0  0  0
 13 12  1  0  0  0  0
 14 13  1  0  0  0  0
 15 14  1  0  0  0  0
 17 16  2  0  0  0  0
 16 21  1  0  0  0  0
 18 17  1  0  0  0  0
 19 18  2  0  0  0  0
 20 19  1  0  0  0  0
 21 20  2  0  0  0  0
M  END
> <Inchi_key>
OFAIGZWCDGNZGT-UHFFFAOYSA-N

> <Source>
Mulliner

> <ID>
HT3298

> <H_MFHB>
0

> <CAS>


> <Cholestasis>


> <Name>


> <Class>
0

$$$$