

  -INDIGO-08031710012D

 35 38  0  0  0  0  0  0  0  0999 V2000
    8.6788    2.3255    0.0000 C   0  0  0  0  0  0  0  0  0  0  0  0
    7.3798    1.5755    0.0000 N   0  0  0  0  0  0  0  0  0  0  0  0
    6.0808    2.3255    0.0000 C   0  0  0  0  0  0  0  0  0  0  0  0
    7.3798    0.0755    0.0000 C   0  0  0  0  0  0  0  0  0  0  0  0
    6.0808   -0.6745    0.0000 C   0  0  0  0  0  0  0  0  0  0  0  0
    4.7816    0.0755    0.0000 C   0  0  0  0  0  0  0  0  0  0  0  0
    3.4826   -0.6745    0.0000 C   0  0  0  0  0  0  0  0  0  0  0  0
    3.4826   -2.1745    0.0000 C   0  0  0  0  0  0  0  0  0  0  0  0
    4.7816   -2.9245    0.0000 C   0  0  0  0  0  0  0  0  0  0  0  0
    4.7816   -4.4245    0.0000 O   0  0  0  0  0  0  0  0  0  0  0  0
    6.0808   -2.1745    0.0000 C   0  0  0  0  0  0  0  0  0  0  0  0
    6.0808   -3.6745    0.0000 O   0  0  0  0  0  0  0  0  0  0  0  0
    7.3798   -2.9245    0.0000 C   0  0  0  0  0  0  0  0  0  0  0  0
    8.6788   -2.1745    0.0000 C   0  0  0  0  0  0  0  0  0  0  0  0
    9.9777   -2.9245    0.0000 C   0  0  0  0  0  0  0  0  0  0  0  0
    9.9777   -4.4245    0.0000 O   0  0  0  0  0  0  0  0  0  0  0  0
   11.2767   -2.1745    0.0000 N   0  0  0  0  0  0  0  0  0  0  0  0
   12.5759   -2.9245    0.0000 C   0  0  0  0  0  0  0  0  0  0  0  0
   13.8749   -2.1745    0.0000 O   0  0  0  0  0  0  0  0  0  0  0  0
    8.6788   -0.6745    0.0000 C   0  0  0  0  0  0  0  0  0  0  0  0
    9.9777    0.0755    0.0000 O   0  0  0  0  0  0  0  0  0  0  0  0
    7.3798   -4.4245    0.0000 O   0  0  0  0  0  0  0  0  0  0  0  0
    2.1837   -2.9245    0.0000 C   0  0  0  0  0  0  0  0  0  0  0  0
    2.1837   -4.4245    0.0000 O   0  0  0  0  0  0  0  0  0  0  0  0
    0.8844   -2.1745    0.0000 C   0  0  0  0  0  0  0  0  0  0  0  0
   -0.4145   -2.9245    0.0000 C   0  0  0  0  0  0  0  0  0  0  0  0
   -0.4145   -4.4245    0.0000 O   0  0  0  0  0  0  0  0  0  0  0  0
   -1.7135   -2.1745    0.0000 C   0  0  0  0  0  0  0  0  0  0  0  0
   -1.7135   -0.6745    0.0000 C   0  0  0  0  0  0  0  0  0  0  0  0
   -0.4145    0.0755    0.0000 C   0  0  0  0  0  0  0  0  0  0  0  0
   -0.4145    1.5755    0.0000 Cl  0  0  0  0  0  0  0  0  0  0  0  0
    0.8844   -0.6745    0.0000 C   0  0  0  0  0  0  0  0  0  0  0  0
    2.1837    0.0755    0.0000 C   0  0  0  0  0  0  0  0  0  0  0  0
    1.4337    1.3745    0.0000 C   0  0  0  0  0  0  0  0  0  0  0  0
    2.9336    1.3745    0.0000 O   0  0  0  0  0  0  0  0  0  0  0  0
  1  2  1  0  0  0  0
  2  3  1  0  0  0  0
  2  4  1  0  0  0  0
  5  4  1  0  0  0  0
  4 20  1  0  0  0  0
  6  5  1  0  0  0  0
  5 11  1  0  0  0  0
  7  6  1  0  0  0  0
  7  8  1  0  0  0  0
 33  7  1  0  0  0  0
  9  8  2  0  0  0  0
  8 23  1  0  0  0  0
  9 10  1  0  0  0  0
 11  9  1  0  0  0  0
 11 12  1  0  0  0  0
 13 11  1  0  0  0  0
 14 13  2  0  0  0  0
 13 22  1  0  0  0  0
 14 15  1  0  0  0  0
 20 14  1  0  0  0  0
 15 16  2  0  0  0  0
 15 17  1  0  0  0  0
 17 18  1  0  0  0  0
 18 19  1  0  0  0  0
 20 21  2  0  0  0  0
 23 24  2  0  0  0  0
 23 25  1  0  0  0  0
 26 25  2  0  0  0  0
 25 32  1  0  0  0  0
 26 27  1  0  0  0  0
 28 26  1  0  0  0  0
 29 28  2  0  0  0  0
 30 29  1  0  0  0  0
 30 31  1  0  0  0  0
 32 30  2  0  0  0  0
 32 33  1  0  0  0  0
 33 34  1  0  0  0  0
 33 35  1  0  0  0  0
M  END
> <Inchi_key>
OBDRDVRTXDEGBA-UHFFFAOYSA-N

> <Source>
Mulliner

> <ID>
HT0529

> <H_MFHB>
0

> <CAS>


> <Cholestasis>


> <Name>
clomocycline

> <Class>
0


$$$$