
  -INDIGO-08031710012D

 23 26  0  0  0  0  0  0  0  0999 V2000
    2.3036    2.8116    0.0000 Cl  0  0  0  0  0  0  0  0  0  0  0  0
    3.3458    1.7329    0.0000 C   0  0  0  0  0  0  0  0  0  0  0  0
    4.8011    2.0962    0.0000 C   0  0  0  0  0  0  0  0  0  0  0  0
    5.8434    1.0175    0.0000 C   0  0  0  0  0  0  0  0  0  0  0  0
    5.4305   -0.4245    0.0000 C   0  0  0  0  0  0  0  0  0  0  0  0
    6.6222   -1.3352    0.0000 N   0  0  0  0  0  0  0  0  0  0  0  0
    7.9604   -0.6573    0.0000 C   0  0  0  0  0  0  0  0  0  0  0  0
    9.2165   -1.4772    0.0000 C   0  0  0  0  0  0  0  0  0  0  0  0
   10.7143   -1.5592    0.0000 C   0  0  0  0  0  0  0  0  0  0  0  0
    9.8943   -2.8153    0.0000 C   0  0  0  0  0  0  0  0  0  0  0  0
    6.6516   -2.8349    0.0000 C   0  0  0  0  0  0  0  0  0  0  0  0
    8.0156   -3.4589    0.0000 O   0  0  0  0  0  0  0  0  0  0  0  0
    5.4978   -3.7934    0.0000 C   0  0  0  0  0  0  0  0  0  0  0  0
    4.0278   -3.4906    0.0000 N   0  0  0  0  0  0  0  0  0  0  0  0
    3.3511   -2.1519    0.0000 C   0  0  0  0  0  0  0  0  0  0  0  0
    1.8514   -2.1811    0.0000 C   0  0  0  0  0  0  0  0  0  0  0  0
    1.0761   -0.8970    0.0000 C   0  0  0  0  0  0  0  0  0  0  0  0
   -0.4235   -0.9262    0.0000 C   0  0  0  0  0  0  0  0  0  0  0  0
   -1.1481   -2.2397    0.0000 C   0  0  0  0  0  0  0  0  0  0  0  0
   -0.3728   -3.5238    0.0000 C   0  0  0  0  0  0  0  0  0  0  0  0
    1.1268   -3.4946    0.0000 C   0  0  0  0  0  0  0  0  0  0  0  0
    3.9752   -0.7878    0.0000 C   0  0  0  0  0  0  0  0  0  0  0  0
    2.9327    0.2908    0.0000 C   0  0  0  0  0  0  0  0  0  0  0  0
  1  2  1  0  0  0  0
  3  2  2  0  0  0  0
  2 23  1  0  0  0  0
  4  3  1  0  0  0  0
  5  4  2  0  0  0  0
  6  5  1  0  0  0  0
  5 22  1  0  0  0  0
  6  7  1  0  0  0  0
 11  6  1  0  0  0  0
  7  8  1  0  0  0  0
  9  8  1  0  0  0  0
  8 10  1  0  0  0  0
 10  9  1  0  0  0  0
 11 12  2  0  0  0  0
 13 11  1  0  0  0  0
 14 13  1  0  0  0  0
 15 14  2  0  0  0  0
 15 16  1  0  0  0  0
 22 15  1  0  0  0  0
 17 16  2  0  0  0  0
 16 21  1  0  0  0  0
 18 17  1  0  0  0  0
 19 18  2  0  0  0  0
 20 19  1  0  0  0  0
 21 20  2  0  0  0  0
 23 22  2  0  0  0  0
M  END
> <Inchi_key>
MWQCHHACWWAQLJ-UHFFFAOYSA-N

> <Source>
Mulliner

> <ID>
HT1726

> <H_MFHB>
0

> <CAS>
2955-38-6

> <Cholestasis>


> <Name>
prazepam

> <Class>
0

$$$$