

  -INDIGO-08031710012D

 18 19  0  0  0  0  0  0  0  0999 V2000
   12.5928    1.2748    0.0000 C   0  0  0  0  0  0  0  0  0  0  0  0
   11.1232    0.9742    0.0000 C   0  0  0  0  0  0  0  0  0  0  0  0
   10.1280    2.0965    0.0000 O   0  0  0  0  0  0  0  0  0  0  0  0
    8.6587    1.7959    0.0000 C   0  0  0  0  0  0  0  0  0  0  0  0
    8.1841    0.3729    0.0000 O   0  0  0  0  0  0  0  0  0  0  0  0
    7.6634    2.9183    0.0000 C   0  0  0  0  0  0  0  0  0  0  0  0
    7.9866    4.3831    0.0000 C   0  0  0  0  0  0  0  0  0  0  0  0
    6.6934    5.1430    0.0000 N   0  0  0  0  0  0  0  0  0  0  0  0
    5.5709    4.1479    0.0000 C   0  0  0  0  0  0  0  0  0  0  0  0
    6.1705    2.7730    0.0000 N   0  0  0  0  0  0  0  0  0  0  0  0
    5.4106    1.4797    0.0000 C   0  0  0  0  0  0  0  0  0  0  0  0
    6.1506    0.1750    0.0000 C   0  0  0  0  0  0  0  0  0  0  0  0
    3.9106    1.4912    0.0000 C   0  0  0  0  0  0  0  0  0  0  0  0
    3.1706    2.7960    0.0000 C   0  0  0  0  0  0  0  0  0  0  0  0
    1.6706    2.8075    0.0000 C   0  0  0  0  0  0  0  0  0  0  0  0
    0.9107    1.5142    0.0000 C   0  0  0  0  0  0  0  0  0  0  0  0
    1.6506    0.2095    0.0000 C   0  0  0  0  0  0  0  0  0  0  0  0
    3.1507    0.1980    0.0000 C   0  0  0  0  0  0  0  0  0  0  0  0
  1  2  1  0  0  0  0
  2  3  1  0  0  0  0
  3  4  1  0  0  0  0
  4  5  2  0  0  0  0
  4  6  1  0  0  0  0
  7  6  2  0  0  0  0
  6 10  1  0  0  0  0
  8  7  1  0  0  0  0
  9  8  2  0  0  0  0
 10  9  1  0  0  0  0
 10 11  1  0  0  0  0
 11 12  1  0  0  0  0
 11 13  1  0  0  0  0
 14 13  2  0  0  0  0
 13 18  1  0  0  0  0
 15 14  1  0  0  0  0
 16 15  2  0  0  0  0
 17 16  1  0  0  0  0
 18 17  2  0  0  0  0
M  END
> <Inchi_key>
NPUKDXXFDDZOKR-UHFFFAOYSA-N

> <Source>
Mulliner

> <ID>
HT0829

> <H_MFHB>
0

> <CAS>


> <Cholestasis>


> <Name>
etomidate

> <Class>
0


$$$$