

  -INDIGO-08031710012D

 28 31  0  0  0  0  0  0  0  0999 V2000
   16.7617   -4.4913    0.0000 C   0  0  0  0  0  0  0  0  0  0  0  0
   15.4627   -3.7412    0.0000 C   0  0  0  0  0  0  0  0  0  0  0  0
   15.4627   -2.2412    0.0000 C   0  0  0  0  0  0  0  0  0  0  0  0
   14.1635   -1.4913    0.0000 C   0  0  0  0  0  0  0  0  0  0  0  0
   12.8645   -2.2412    0.0000 C   0  0  0  0  0  0  0  0  0  0  0  0
   12.8645   -3.7412    0.0000 C   0  0  0  0  0  0  0  0  0  0  0  0
   11.5655   -4.4913    0.0000 C   0  0  0  0  0  0  0  0  0  0  0  0
   10.2666   -3.7412    0.0000 N   0  0  0  0  0  0  0  0  0  0  0  0
    8.9673   -4.4913    0.0000 C   0  0  0  0  0  0  0  0  0  0  0  0
    7.6683   -3.7412    0.0000 C   0  0  0  0  0  0  0  0  0  0  0  0
    7.6683   -2.2412    0.0000 N   0  0  0  0  0  0  0  0  0  0  0  0
    8.9673   -1.4913    0.0000 C   0  0  0  0  0  0  0  0  0  0  0  0
   10.2666   -2.2412    0.0000 C   0  0  0  0  0  0  0  0  0  0  0  0
    6.3694   -1.4913    0.0000 C   0  0  0  0  0  0  0  0  0  0  0  0
    6.3694    0.0087    0.0000 C   0  0  0  0  0  0  0  0  0  0  0  0
    5.0704    0.7588    0.0000 C   0  0  0  0  0  0  0  0  0  0  0  0
    5.0704    2.2588    0.0000 C   0  0  0  0  0  0  0  0  0  0  0  0
    6.3694    3.0087    0.0000 C   0  0  0  0  0  0  0  0  0  0  0  0
    7.6683    2.2588    0.0000 C   0  0  0  0  0  0  0  0  0  0  0  0
    7.6683    0.7588    0.0000 C   0  0  0  0  0  0  0  0  0  0  0  0
    5.0704   -2.2412    0.0000 C   0  0  0  0  0  0  0  0  0  0  0  0
    3.7714   -1.4913    0.0000 C   0  0  0  0  0  0  0  0  0  0  0  0
    2.4722   -2.2412    0.0000 C   0  0  0  0  0  0  0  0  0  0  0  0
    2.4722   -3.7412    0.0000 C   0  0  0  0  0  0  0  0  0  0  0  0
    1.1732   -4.4913    0.0000 Cl  0  0  0  0  0  0  0  0  0  0  0  0
    3.7714   -4.4913    0.0000 C   0  0  0  0  0  0  0  0  0  0  0  0
    5.0704   -3.7412    0.0000 C   0  0  0  0  0  0  0  0  0  0  0  0
   14.1635   -4.4913    0.0000 C   0  0  0  0  0  0  0  0  0  0  0  0
  1  2  1  0  0  0  0
  3  2  2  0  0  0  0
  2 28  1  0  0  0  0
  4  3  1  0  0  0  0
  5  4  2  0  0  0  0
  6  5  1  0  0  0  0
  6  7  1  0  0  0  0
 28  6  2  0  0  0  0
  7  8  1  0  0  0  0
  9  8  1  0  0  0  0
  8 13  1  0  0  0  0
 10  9  1  0  0  0  0
 11 10  1  0  0  0  0
 12 11  1  0  0  0  0
 11 14  1  0  0  0  0
 13 12  1  0  0  0  0
 14 15  1  0  0  0  0
 14 21  1  0  0  0  0
 16 15  2  0  0  0  0
 15 20  1  0  0  0  0
 17 16  1  0  0  0  0
 18 17  2  0  0  0  0
 19 18  1  0  0  0  0
 20 19  2  0  0  0  0
 22 21  2  0  0  0  0
 21 27  1  0  0  0  0
 23 22  1  0  0  0  0
 24 23  2  0  0  0  0
 24 25  1  0  0  0  0
 26 24  1  0  0  0  0
 27 26  2  0  0  0  0
M  END
> <Inchi_key>
OCJYIGYOJCODJL-UHFFFAOYSA-N

> <Source>
Mulliner , Kotsampasakou

> <ID>
EK0313;HT1282

> <H_MFHB>
0

> <CAS>


> <Cholestasis>
0

> <Name>
meclizine

> <Class>
0


$$$$