
  -INDIGO-08031710012D

 22 24  0  0  0  0  0  0  0  0999 V2000
   11.9798    6.9165    0.0000 O   0  0  0  0  0  0  0  0  0  0  0  0
   11.2299    5.6174    0.0000 C   0  0  0  0  0  0  0  0  0  0  0  0
   11.9798    4.3185    0.0000 O   0  0  0  0  0  0  0  0  0  0  0  0
    9.7299    5.6174    0.0000 C   0  0  0  0  0  0  0  0  0  0  0  0
    8.9798    4.3185    0.0000 C   0  0  0  0  0  0  0  0  0  0  0  0
    7.4798    4.3185    0.0000 C   0  0  0  0  0  0  0  0  0  0  0  0
    6.5981    5.5320    0.0000 O   0  0  0  0  0  0  0  0  0  0  0  0
    5.1716    5.0685    0.0000 C   0  0  0  0  0  0  0  0  0  0  0  0
    3.9580    5.9502    0.0000 C   0  0  0  0  0  0  0  0  0  0  0  0
    4.1148    7.4420    0.0000 C   0  0  0  0  0  0  0  0  0  0  0  0
    2.9012    8.3236    0.0000 C   0  0  0  0  0  0  0  0  0  0  0  0
    1.5310    7.7136    0.0000 C   0  0  0  0  0  0  0  0  0  0  0  0
    1.3742    6.2217    0.0000 C   0  0  0  0  0  0  0  0  0  0  0  0
    2.5878    5.3400    0.0000 C   0  0  0  0  0  0  0  0  0  0  0  0
    5.1716    3.5685    0.0000 C   0  0  0  0  0  0  0  0  0  0  0  0
    6.5981    3.1049    0.0000 N   0  0  0  0  0  0  0  0  0  0  0  0
    3.9580    2.6867    0.0000 C   0  0  0  0  0  0  0  0  0  0  0  0
    2.5878    3.2969    0.0000 C   0  0  0  0  0  0  0  0  0  0  0  0
    1.3742    2.4152    0.0000 C   0  0  0  0  0  0  0  0  0  0  0  0
    1.5310    0.9233    0.0000 C   0  0  0  0  0  0  0  0  0  0  0  0
    2.9012    0.3133    0.0000 C   0  0  0  0  0  0  0  0  0  0  0  0
    4.1148    1.1949    0.0000 C   0  0  0  0  0  0  0  0  0  0  0  0
  1  2  1  0  0  0  0
  2  3  2  0  0  0  0
  2  4  1  0  0  0  0
  4  5  1  0  0  0  0
  5  6  1  0  0  0  0
  7  6  1  0  0  0  0
  6 16  2  0  0  0  0
  8  7  1  0  0  0  0
  8  9  1  0  0  0  0
 15  8  2  0  0  0  0
 10  9  2  0  0  0  0
  9 14  1  0  0  0  0
 11 10  1  0  0  0  0
 12 11  2  0  0  0  0
 13 12  1  0  0  0  0
 14 13  2  0  0  0  0
 16 15  1  0  0  0  0
 15 17  1  0  0  0  0
 18 17  2  0  0  0  0
 17 22  1  0  0  0  0
 19 18  1  0  0  0  0
 20 19  2  0  0  0  0
 21 20  1  0  0  0  0
 22 21  2  0  0  0  0
M  END
> <Inchi_key>
OFPXSFXSNFPTHF-UHFFFAOYSA-N

> <Source>
Mulliner

> <ID>
HT1554

> <H_MFHB>
0

> <CAS>
21256-18-8

> <Cholestasis>


> <Name>
oxaprozin;oxaprozin potassium

> <Class>
0

$$$$