

  -INDIGO-08031710012D

 36 40  0  0  0  0  0  0  0  0999 V2000
    2.8929    2.1973    0.0000 C   0  0  0  0  0  0  0  0  0  0  0  0
    4.1921    1.4473    0.0000 C   0  0  0  0  0  0  0  0  0  0  0  0
    4.1921   -0.0527    0.0000 C   0  0  0  0  0  0  0  0  0  0  0  0
    5.4910   -0.8026    0.0000 S   0  0  0  0  0  0  0  0  0  0  0  0
    5.4910   -2.3028    0.0000 C   0  0  0  0  0  0  0  0  0  0  0  0
    6.7900   -3.0528    0.0000 N   0  0  0  0  0  0  0  0  0  0  0  0
    6.7900   -4.5527    0.0000 C   0  0  0  0  0  0  0  0  0  0  0  0
    8.0892   -5.3027    0.0000 N   0  0  0  0  0  0  0  0  0  0  0  0
    9.3882   -4.5527    0.0000 C   0  0  0  0  0  0  0  0  0  0  0  0
   10.1381   -3.2537    0.0000 C   0  0  0  0  0  0  0  0  0  0  0  0
   10.8884   -4.5527    0.0000 C   0  0  0  0  0  0  0  0  0  0  0  0
   12.1873   -5.3027    0.0000 C   0  0  0  0  0  0  0  0  0  0  0  0
   12.1873   -6.8027    0.0000 C   0  0  0  0  0  0  0  0  0  0  0  0
   13.4862   -7.5527    0.0000 C   0  0  0  0  0  0  0  0  0  0  0  0
   14.7851   -6.8027    0.0000 C   0  0  0  0  0  0  0  0  0  0  0  0
   16.0844   -7.5527    0.0000 F   0  0  0  0  0  0  0  0  0  0  0  0
   14.7851   -5.3027    0.0000 C   0  0  0  0  0  0  0  0  0  0  0  0
   16.0844   -4.5527    0.0000 F   0  0  0  0  0  0  0  0  0  0  0  0
   13.4862   -4.5527    0.0000 C   0  0  0  0  0  0  0  0  0  0  0  0
    5.4910   -5.3027    0.0000 C   0  0  0  0  0  0  0  0  0  0  0  0
    5.1791   -6.7699    0.0000 N   0  0  0  0  0  0  0  0  0  0  0  0
    3.6875   -6.9267    0.0000 N   0  0  0  0  0  0  0  0  0  0  0  0
    3.0774   -5.5564    0.0000 N   0  0  0  0  0  0  0  0  0  0  0  0
    1.6100   -5.2446    0.0000 C   0  0  0  0  0  0  0  0  0  0  0  0
    1.0000   -3.8743    0.0000 C   0  0  0  0  0  0  0  0  0  0  0  0
   -0.4917   -4.0310    0.0000 C   0  0  0  0  0  0  0  0  0  0  0  0
   -1.4954   -2.9163    0.0000 O   0  0  0  0  0  0  0  0  0  0  0  0
   -2.9628   -3.2282    0.0000 C   0  0  0  0  0  0  0  0  0  0  0  0
   -3.9666   -2.1135    0.0000 C   0  0  0  0  0  0  0  0  0  0  0  0
   -5.4336   -2.4253    0.0000 O   0  0  0  0  0  0  0  0  0  0  0  0
   -0.8036   -5.4983    0.0000 C   0  0  0  0  0  0  0  0  0  0  0  0
   -2.1741   -6.1084    0.0000 O   0  0  0  0  0  0  0  0  0  0  0  0
    0.4953   -6.2483    0.0000 C   0  0  0  0  0  0  0  0  0  0  0  0
    0.6522   -7.7401    0.0000 O   0  0  0  0  0  0  0  0  0  0  0  0
    4.1921   -4.5527    0.0000 C   0  0  0  0  0  0  0  0  0  0  0  0
    4.1921   -3.0528    0.0000 N   0  0  0  0  0  0  0  0  0  0  0  0
  1  2  1  0  0  0  0
  2  3  1  0  0  0  0
  3  4  1  0  0  0  0
  4  5  1  0  0  0  0
  6  5  2  0  0  0  0
  5 36  1  0  0  0  0
  7  6  1  0  0  0  0
  7  8  1  0  0  0  0
 20  7  2  0  0  0  0
  8  9  1  0  0  0  0
 10  9  1  0  0  0  0
  9 11  1  0  0  0  0
 11 10  1  0  0  0  0
 11 12  1  0  0  0  0
 13 12  2  0  0  0  0
 12 19  1  0  0  0  0
 14 13  1  0  0  0  0
 15 14  2  0  0  0  0
 15 16  1  0  0  0  0
 17 15  1  0  0  0  0
 17 18  1  0  0  0  0
 19 17  2  0  0  0  0
 21 20  1  0  0  0  0
 20 35  1  0  0  0  0
 22 21  2  0  0  0  0
 23 22  1  0  0  0  0
 23 24  1  0  0  0  0
 35 23  1  0  0  0  0
 25 24  1  0  0  0  0
 24 33  1  0  0  0  0
 26 25  1  0  0  0  0
 26 27  1  0  0  0  0
 31 26  1  0  0  0  0
 27 28  1  0  0  0  0
 28 29  1  0  0  0  0
 29 30  1  0  0  0  0
 31 32  1  0  0  0  0
 33 31  1  0  0  0  0
 33 34  1  0  0  0  0
 36 35  2  0  0  0  0
M  END
> <Inchi_key>
OEKWJQXRCDYSHL-UHFFFAOYSA-N

> <Source>
Mulliner

> <ID>
HT2056

> <H_MFHB>
0

> <CAS>


> <Cholestasis>


> <Name>
ticagrelor

> <Class>
0


$$$$