

  -INDIGO-08031710012D

 25 25  0  0  0  0  0  0  0  0999 V2000
   13.0500   -7.5344    0.0000 C   0  0  0  0  0  0  0  0  0  0  0  0
   12.3000   -6.2354    0.0000 N   0  0  0  0  0  0  0  0  0  0  0  0
   10.8000   -6.2354    0.0000 C   0  0  0  0  0  0  0  0  0  0  0  0
   10.0500   -4.9363    0.0000 C   0  0  0  0  0  0  0  0  0  0  0  0
   10.8000   -3.6374    0.0000 O   0  0  0  0  0  0  0  0  0  0  0  0
    8.5500   -4.9363    0.0000 C   0  0  0  0  0  0  0  0  0  0  0  0
    7.8000   -6.2354    0.0000 C   0  0  0  0  0  0  0  0  0  0  0  0
    6.3000   -6.2354    0.0000 C   0  0  0  0  0  0  0  0  0  0  0  0
    5.5500   -4.9363    0.0000 C   0  0  0  0  0  0  0  0  0  0  0  0
    4.0500   -4.9363    0.0000 O   0  0  0  0  0  0  0  0  0  0  0  0
    3.3000   -6.2354    0.0000 C   0  0  0  0  0  0  0  0  0  0  0  0
    4.0500   -7.5344    0.0000 O   0  0  0  0  0  0  0  0  0  0  0  0
    1.8000   -6.2354    0.0000 C   0  0  0  0  0  0  0  0  0  0  0  0
    1.8000   -4.7353    0.0000 C   0  0  0  0  0  0  0  0  0  0  0  0
    0.3000   -6.2354    0.0000 C   0  0  0  0  0  0  0  0  0  0  0  0
    1.8000   -7.7354    0.0000 C   0  0  0  0  0  0  0  0  0  0  0  0
    6.3000   -3.6374    0.0000 C   0  0  0  0  0  0  0  0  0  0  0  0
    5.5500   -2.3383    0.0000 O   0  0  0  0  0  0  0  0  0  0  0  0
    6.3000   -1.0392    0.0000 C   0  0  0  0  0  0  0  0  0  0  0  0
    7.8000   -1.0392    0.0000 O   0  0  0  0  0  0  0  0  0  0  0  0
    5.5500    0.2599    0.0000 C   0  0  0  0  0  0  0  0  0  0  0  0
    4.8000    1.5588    0.0000 C   0  0  0  0  0  0  0  0  0  0  0  0
    4.2510   -0.4902    0.0000 C   0  0  0  0  0  0  0  0  0  0  0  0
    6.8490    1.0098    0.0000 C   0  0  0  0  0  0  0  0  0  0  0  0
    7.8000   -3.6374    0.0000 C   0  0  0  0  0  0  0  0  0  0  0  0
  1  2  1  0  0  0  0
  2  3  1  0  0  0  0
  3  4  1  0  0  0  0
  4  5  1  0  0  0  0
  4  6  1  0  0  0  0
  7  6  2  0  0  0  0
  6 25  1  0  0  0  0
  8  7  1  0  0  0  0
  9  8  2  0  0  0  0
  9 10  1  0  0  0  0
 17  9  1  0  0  0  0
 10 11  1  0  0  0  0
 11 12  2  0  0  0  0
 11 13  1  0  0  0  0
 13 14  1  0  0  0  0
 13 15  1  0  0  0  0
 13 16  1  0  0  0  0
 17 18  1  0  0  0  0
 25 17  2  0  0  0  0
 18 19  1  0  0  0  0
 19 20  2  0  0  0  0
 19 21  1  0  0  0  0
 21 22  1  0  0  0  0
 21 23  1  0  0  0  0
 21 24  1  0  0  0  0
M  END
> <Inchi_key>
OCUJLLGVOUDECM-UHFFFAOYSA-N

> <Source>
Mulliner , Kotsampasakou

> <ID>
EK0168;HT0692

> <H_MFHB>
0

> <CAS>


> <Cholestasis>
0

> <Name>
dipivefrin

> <Class>
0


$$$$