

  -INDIGO-08031710012D

 30 33  0  0  0  0  0  0  0  0999 V2000
   -3.2081   -5.1825    0.0000 C   0  0  0  0  0  0  0  0  0  0  0  0
   -3.9744   -3.8930    0.0000 C   0  0  0  0  0  0  0  0  0  0  0  0
   -4.7307   -5.1884    0.0000 C   0  0  0  0  0  0  0  0  0  0  0  0
   -6.2306   -5.1812    0.0000 C   0  0  0  0  0  0  0  0  0  0  0  0
   -6.9745   -3.8785    0.0000 C   0  0  0  0  0  0  0  0  0  0  0  0
   -8.4744   -3.8712    0.0000 O   0  0  0  0  0  0  0  0  0  0  0  0
   -6.2180   -2.5831    0.0000 C   0  0  0  0  0  0  0  0  0  0  0  0
   -4.7181   -2.5904    0.0000 C   0  0  0  0  0  0  0  0  0  0  0  0
   -3.9618   -1.2950    0.0000 C   0  0  0  0  0  0  0  0  0  0  0  0
   -2.4619   -1.3023    0.0000 C   0  0  0  0  0  0  0  0  0  0  0  0
   -1.7182   -2.6049    0.0000 C   0  0  0  0  0  0  0  0  0  0  0  0
   -0.2181   -2.6122    0.0000 C   0  0  0  0  0  0  0  0  0  0  0  0
    0.7910   -1.5024    0.0000 C   0  0  0  0  0  0  0  0  0  0  0  0
    2.1582   -2.1191    0.0000 C   0  0  0  0  0  0  0  0  0  0  0  0
    1.9942   -3.6101    0.0000 C   0  0  0  0  0  0  0  0  0  0  0  0
    2.3755   -5.0609    0.0000 O   0  0  0  0  0  0  0  0  0  0  0  0
    3.4542   -3.9546    0.0000 C   0  0  0  0  0  0  0  0  0  0  0  0
    3.8857   -5.3912    0.0000 O   0  0  0  0  0  0  0  0  0  0  0  0
    4.4825   -2.8625    0.0000 C   0  0  0  0  0  0  0  0  0  0  0  0
    5.9423   -3.2071    0.0000 O   0  0  0  0  0  0  0  0  0  0  0  0
    6.9708   -2.1150    0.0000 P   0  0  0  0  0  0  0  0  0  0  0  0
    8.0627   -3.1433    0.0000 O   0  0  0  0  0  0  0  0  0  0  0  0
    7.9991   -1.0229    0.0000 O   0  0  0  0  0  0  0  0  0  0  0  0
    5.8787   -1.0867    0.0000 O   0  0  0  0  0  0  0  0  0  0  0  0
    0.5256   -3.9149    0.0000 C   0  0  0  0  0  0  0  0  0  0  0  0
    1.4012   -5.1326    0.0000 C   0  0  0  0  0  0  0  0  0  0  0  0
   -0.2307   -5.2102    0.0000 C   0  0  0  0  0  0  0  0  0  0  0  0
   -1.7306   -5.2030    0.0000 C   0  0  0  0  0  0  0  0  0  0  0  0
   -2.4869   -6.4984    0.0000 O   0  0  0  0  0  0  0  0  0  0  0  0
   -2.4745   -3.9003    0.0000 C   0  0  0  0  0  0  0  0  0  0  0  0
  1  2  1  0  0  0  0
  3  2  1  0  0  0  0
  8  2  1  0  0  0  0
  2 30  1  0  0  0  0
  4  3  1  0  0  0  0
  5  4  1  0  0  0  0
  5  6  2  0  0  0  0
  7  5  1  0  0  0  0
  8  7  2  0  0  0  0
  9  8  1  0  0  0  0
 10  9  1  0  0  0  0
 11 10  1  0  0  0  0
 12 11  1  0  0  0  0
 11 30  1  0  0  0  0
 13 12  1  0  0  0  0
 12 25  1  0  0  0  0
 14 13  1  0  0  0  0
 15 14  1  0  0  0  0
 15 16  1  0  0  0  0
 15 17  1  0  0  0  0
 25 15  1  0  0  0  0
 17 18  2  0  0  0  0
 17 19  1  0  0  0  0
 19 20  1  0  0  0  0
 20 21  1  0  0  0  0
 21 22  2  0  0  0  0
 21 23  1  0  0  0  0
 21 24  1  0  0  0  0
 25 26  1  0  0  0  0
 27 25  1  0  0  0  0
 28 27  1  0  0  0  0
 28 29  1  0  0  0  0
 30 28  1  0  0  0  0
M  END
> <Inchi_key>
BGSOJVFOEQLVMH-UHFFFAOYSA-N

> <Source>
Mulliner

> <ID>
HT1052

> <H_MFHB>
0

> <CAS>


> <Cholestasis>


> <Name>
hydrocortisone sodium phosphate

> <Class>
0


$$$$