
  -INDIGO-08031710012D

 26 31  0  0  0  0  0  0  0  0999 V2000
    1.1057    2.5654    0.0000 O   0  0  0  0  0  0  0  0  0  0  0  0
    2.3992    1.8061    0.0000 C   0  0  0  0  0  0  0  0  0  0  0  0
    3.6477    2.5135    0.0000 C   0  0  0  0  0  0  0  0  0  0  0  0
    4.8871    1.7875    0.0000 C   0  0  0  0  0  0  0  0  0  0  0  0
    4.8682    0.3578    0.0000 C   0  0  0  0  0  0  0  0  0  0  0  0
    6.1785    1.0882    0.0000 O   0  0  0  0  0  0  0  0  0  0  0  0
    6.1114   -0.3764    0.0000 C   0  0  0  0  0  0  0  0  0  0  0  0
    6.0871   -1.8121    0.0000 C   0  0  0  0  0  0  0  0  0  0  0  0
    4.8327   -2.5200    0.0000 C   0  0  0  0  0  0  0  0  0  0  0  0
    4.8162   -3.9449    0.0000 C   0  0  0  0  0  0  0  0  0  0  0  0
    3.5703   -4.6509    0.0000 C   0  0  0  0  0  0  0  0  0  0  0  0
    2.3388   -3.9214    0.0000 C   0  0  0  0  0  0  0  0  0  0  0  0
    1.0318   -4.6575    0.0000 O   0  0  0  0  0  0  0  0  0  0  0  0
    2.3529   -2.4851    0.0000 C   0  0  0  0  0  0  0  0  0  0  0  0
    1.3077   -1.0291    0.0000 O   0  0  0  0  0  0  0  0  0  0  0  0
    2.3902    0.3735    0.0000 C   0  0  0  0  0  0  0  0  0  0  0  0
    3.6198   -0.3496    0.0000 C   0  0  0  0  0  0  0  0  0  0  0  0
    4.6329   -1.3974    0.0000 C   0  0  0  0  0  0  0  0  0  0  0  0
    6.7815   -1.2722    0.0000 C   0  0  0  0  0  0  0  0  0  0  0  0
    7.5152   -0.0343    0.0000 N   0  0  0  0  0  0  0  0  0  0  0  0
    8.7203    0.8587    0.0000 C   0  0  0  0  0  0  0  0  0  0  0  0
   10.0963    0.2615    0.0000 C   0  0  0  0  0  0  0  0  0  0  0  0
   11.4917    0.8122    0.0000 C   0  0  0  0  0  0  0  0  0  0  0  0
   12.0424   -0.5830    0.0000 C   0  0  0  0  0  0  0  0  0  0  0  0
   10.6471   -1.1337    0.0000 C   0  0  0  0  0  0  0  0  0  0  0  0
    3.6005   -1.7895    0.0000 C   0  0  0  0  0  0  0  0  0  0  0  0
  1  2  1  0  0  0  0
  3  2  1  0  0  0  0
  2 16  1  0  0  0  0
  4  3  1  0  0  0  0
  5  4  1  0  0  0  0
  5  6  1  0  0  0  0
  7  5  1  0  0  0  0
  5 17  1  0  0  0  0
  8  7  1  0  0  0  0
  7 20  1  0  0  0  0
  9  8  1  0  0  0  0
 10  9  2  0  0  0  0
  9 26  1  0  0  0  0
 11 10  1  0  0  0  0
 12 11  2  0  0  0  0
 12 13  1  0  0  0  0
 14 12  1  0  0  0  0
 14 15  1  0  0  0  0
 26 14  2  0  0  0  0
 15 16  1  0  0  0  0
 16 17  1  0  0  0  0
 18 17  1  0  0  0  0
 17 26  1  0  0  0  0
 19 18  1  0  0  0  0
 20 19  1  0  0  0  0
 20 21  1  0  0  0  0
 21 22  1  0  0  0  0
 23 22  1  0  0  0  0
 22 25  1  0  0  0  0
 24 23  1  0  0  0  0
 25 24  1  0  0  0  0
M  END
> <Inchi_key>
NETZHAKZCGBWSS-UHFFFAOYSA-N

> <Source>
Mulliner , Kotsampasakou

> <ID>
EK0369;HT1455

> <H_MFHB>
0

> <CAS>


> <Cholestasis>
0

> <Name>
nalbuphine hydrochloride;nalbuphine

> <Class>
0

$$$$