
  -INDIGO-08031710012D

 17 19  0  0  0  0  0  0  0  0999 V2000
   -0.1275    5.0687    0.0000 O   0  0  0  0  0  0  0  0  0  0  0  0
   -0.1275    3.5687    0.0000 C   0  0  0  0  0  0  0  0  0  0  0  0
   -1.4265    2.8187    0.0000 C   0  0  0  0  0  0  0  0  0  0  0  0
   -1.4265    1.3187    0.0000 C   0  0  0  0  0  0  0  0  0  0  0  0
   -0.1275    0.5687    0.0000 C   0  0  0  0  0  0  0  0  0  0  0  0
    1.1716    1.3187    0.0000 C   0  0  0  0  0  0  0  0  0  0  0  0
    2.4707    0.5687    0.0000 C   0  0  0  0  0  0  0  0  0  0  0  0
    3.7696    1.3187    0.0000 C   0  0  0  0  0  0  0  0  0  0  0  0
    5.0687    0.5687    0.0000 C   0  0  0  0  0  0  0  0  0  0  0  0
    6.3677    1.3187    0.0000 C   0  0  0  0  0  0  0  0  0  0  0  0
    6.3677    2.8187    0.0000 C   0  0  0  0  0  0  0  0  0  0  0  0
    5.0687    3.5687    0.0000 C   0  0  0  0  0  0  0  0  0  0  0  0
    5.0687    5.0687    0.0000 O   0  0  0  0  0  0  0  0  0  0  0  0
    3.7696    2.8187    0.0000 C   0  0  0  0  0  0  0  0  0  0  0  0
    2.4707    3.5687    0.0000 C   0  0  0  0  0  0  0  0  0  0  0  0
    2.4707    5.0687    0.0000 O   0  0  0  0  0  0  0  0  0  0  0  0
    1.1716    2.8187    0.0000 C   0  0  0  0  0  0  0  0  0  0  0  0
  1  2  1  0  0  0  0
  3  2  2  0  0  0  0
  2 17  1  0  0  0  0
  4  3  1  0  0  0  0
  5  4  2  0  0  0  0
  6  5  1  0  0  0  0
  7  6  1  0  0  0  0
  6 17  2  0  0  0  0
  8  7  1  0  0  0  0
  9  8  2  0  0  0  0
  8 14  1  0  0  0  0
 10  9  1  0  0  0  0
 11 10  2  0  0  0  0
 12 11  1  0  0  0  0
 12 13  1  0  0  0  0
 14 12  2  0  0  0  0
 15 14  1  0  0  0  0
 15 16  2  0  0  0  0
 17 15  1  0  0  0  0
M  END
> <Inchi_key>
NUZWLKWWNNJHPT-UHFFFAOYSA-N

> <Source>
Mulliner

> <ID>
HT0166

> <H_MFHB>
0

> <CAS>


> <Cholestasis>


> <Name>
anthralin

> <Class>
0

$$$$