
  -INDIGO-08031710012D

 21 22  0  0  0  0  0  0  0  0999 V2000
    2.1881    3.3348    0.0000 C   0  0  0  0  0  0  0  0  0  0  0  0
    1.4380    2.0357    0.0000 C   0  0  0  0  0  0  0  0  0  0  0  0
    0.6882    0.7367    0.0000 C   0  0  0  0  0  0  0  0  0  0  0  0
    0.1392    2.7857    0.0000 O   0  0  0  0  0  0  0  0  0  0  0  0
   -1.1599    2.0357    0.0000 C   0  0  0  0  0  0  0  0  0  0  0  0
   -2.4590    2.7857    0.0000 C   0  0  0  0  0  0  0  0  0  0  0  0
   -3.7579    2.0357    0.0000 C   0  0  0  0  0  0  0  0  0  0  0  0
   -3.7579    0.5357    0.0000 C   0  0  0  0  0  0  0  0  0  0  0  0
   -5.0570   -0.2143    0.0000 Cl  0  0  0  0  0  0  0  0  0  0  0  0
   -2.4590   -0.2143    0.0000 C   0  0  0  0  0  0  0  0  0  0  0  0
   -1.1599    0.5357    0.0000 C   0  0  0  0  0  0  0  0  0  0  0  0
    2.7371    1.2857    0.0000 C   0  0  0  0  0  0  0  0  0  0  0  0
    2.7371   -0.2143    0.0000 O   0  0  0  0  0  0  0  0  0  0  0  0
    4.0362    2.0357    0.0000 O   0  0  0  0  0  0  0  0  0  0  0  0
    5.3353    1.2857    0.0000 C   0  0  0  0  0  0  0  0  0  0  0  0
    5.3353   -0.2143    0.0000 C   0  0  0  0  0  0  0  0  0  0  0  0
    6.6342   -0.9643    0.0000 C   0  0  0  0  0  0  0  0  0  0  0  0
    7.9333   -0.2143    0.0000 C   0  0  0  0  0  0  0  0  0  0  0  0
    9.2324   -0.9643    0.0000 Cl  0  0  0  0  0  0  0  0  0  0  0  0
    7.9333    1.2857    0.0000 C   0  0  0  0  0  0  0  0  0  0  0  0
    6.6342    2.0357    0.0000 C   0  0  0  0  0  0  0  0  0  0  0  0
  1  2  1  0  0  0  0
  2  3  1  0  0  0  0
  2  4  1  0  0  0  0
  2 12  1  0  0  0  0
  4  5  1  0  0  0  0
  6  5  2  0  0  0  0
  5 11  1  0  0  0  0
  7  6  1  0  0  0  0
  8  7  2  0  0  0  0
  8  9  1  0  0  0  0
 10  8  1  0  0  0  0
 11 10  2  0  0  0  0
 12 13  2  0  0  0  0
 12 14  1  0  0  0  0
 14 15  1  0  0  0  0
 16 15  2  0  0  0  0
 15 21  1  0  0  0  0
 17 16  1  0  0  0  0
 18 17  2  0  0  0  0
 18 19  1  0  0  0  0
 20 18  1  0  0  0  0
 21 20  2  0  0  0  0
M  END
> <Inchi_key>
NIVDRJXCJCEFDD-UHFFFAOYSA-N

> <Source>
Mulliner

> <ID>
HT0732

> <H_MFHB>
0

> <CAS>
61887-16-9

> <Cholestasis>


> <Name>
dulofibrate

> <Class>
0

$$$$