
  -INDIGO-08031710012D

 12 12  0  0  0  0  0  0  0  0999 V2000
    6.5625    0.9743    0.0000 C   0  0  0  0  0  0  0  0  0  0  0  0
    5.8125    2.2733    0.0000 O   0  0  0  0  0  0  0  0  0  0  0  0
    4.3125    2.2733    0.0000 C   0  0  0  0  0  0  0  0  0  0  0  0
    3.5625    0.9743    0.0000 O   0  0  0  0  0  0  0  0  0  0  0  0
    2.0625    0.9743    0.0000 C   0  0  0  0  0  0  0  0  0  0  0  0
    1.3125   -0.3248    0.0000 O   0  0  0  0  0  0  0  0  0  0  0  0
    1.3125    2.2733    0.0000 C   0  0  0  0  0  0  0  0  0  0  0  0
   -0.1875    2.2733    0.0000 O   0  0  0  0  0  0  0  0  0  0  0  0
    2.0625    3.5724    0.0000 C   0  0  0  0  0  0  0  0  0  0  0  0
    1.3125    4.8714    0.0000 O   0  0  0  0  0  0  0  0  0  0  0  0
    3.5625    3.5724    0.0000 C   0  0  0  0  0  0  0  0  0  0  0  0
    4.3125    4.8714    0.0000 O   0  0  0  0  0  0  0  0  0  0  0  0
  1  2  1  0  0  0  0
  2  3  1  0  0  0  0
  4  3  1  0  0  0  0
  3 11  1  0  0  0  0
  5  4  1  0  0  0  0
  5  6  1  0  0  0  0
  7  5  1  0  0  0  0
  7  8  1  0  0  0  0
  9  7  1  0  0  0  0
  9 10  1  0  0  0  0
 11  9  1  0  0  0  0
 11 12  1  0  0  0  0
M  END
> <Inchi_key>
NQBSMYPCYYTVKG-UHFFFAOYSA-N

> <Source>
Mulliner

> <ID>
HT2772

> <H_MFHB>
0

> <CAS>


> <Cholestasis>


> <Name>


> <Class>
0

$$$$