
  -INDIGO-08031710012D

 40 41  0  0  0  0  0  0  0  0999 V2000
    7.8749    0.6495    0.0000 C   0  0  0  0  0  0  0  0  0  0  0  0
    7.1249   -0.6495    0.0000 C   0  0  0  0  0  0  0  0  0  0  0  0
    5.6249   -0.6495    0.0000 C   0  0  0  0  0  0  0  0  0  0  0  0
    4.8748   -1.9486    0.0000 C   0  0  0  0  0  0  0  0  0  0  0  0
    3.3752   -1.9486    0.0000 C   0  0  0  0  0  0  0  0  0  0  0  0
    2.6251   -3.2476    0.0000 C   0  0  0  0  0  0  0  0  0  0  0  0
    1.1251   -3.2476    0.0000 C   0  0  0  0  0  0  0  0  0  0  0  0
    0.3751   -4.5466    0.0000 C   0  0  0  0  0  0  0  0  0  0  0  0
    0.3751   -1.9486    0.0000 C   0  0  0  0  0  0  0  0  0  0  0  0
   -1.1250   -1.9486    0.0000 C   0  0  0  0  0  0  0  0  0  0  0  0
   -1.8750   -0.6495    0.0000 C   0  0  0  0  0  0  0  0  0  0  0  0
   -3.3751   -0.6495    0.0000 C   0  0  0  0  0  0  0  0  0  0  0  0
   -4.1251    0.6495    0.0000 C   0  0  0  0  0  0  0  0  0  0  0  0
   -4.1251   -1.9486    0.0000 C   0  0  0  0  0  0  0  0  0  0  0  0
   -5.6252   -1.9486    0.0000 C   0  0  0  0  0  0  0  0  0  0  0  0
   -6.3752   -3.2476    0.0000 C   0  0  0  0  0  0  0  0  0  0  0  0
   -5.6252   -4.5466    0.0000 C   0  0  0  0  0  0  0  0  0  0  0  0
   -4.1251   -4.5466    0.0000 C   0  0  0  0  0  0  0  0  0  0  0  0
   -6.3752   -5.8457    0.0000 C   0  0  0  0  0  0  0  0  0  0  0  0
   -7.8748   -5.8457    0.0000 C   0  0  0  0  0  0  0  0  0  0  0  0
   -8.6249   -4.5466    0.0000 C   0  0  0  0  0  0  0  0  0  0  0  0
   -7.8748   -3.2476    0.0000 C   0  0  0  0  0  0  0  0  0  0  0  0
   -9.1740   -2.4976    0.0000 C   0  0  0  0  0  0  0  0  0  0  0  0
   -7.8748   -1.7476    0.0000 C   0  0  0  0  0  0  0  0  0  0  0  0
    7.8749   -1.9486    0.0000 C   0  0  0  0  0  0  0  0  0  0  0  0
    9.3750   -1.9486    0.0000 C   0  0  0  0  0  0  0  0  0  0  0  0
   10.1250   -3.2476    0.0000 C   0  0  0  0  0  0  0  0  0  0  0  0
   11.6251   -3.2476    0.0000 C   0  0  0  0  0  0  0  0  0  0  0  0
   12.3751   -4.5466    0.0000 C   0  0  0  0  0  0  0  0  0  0  0  0
   12.3751   -1.9486    0.0000 C   0  0  0  0  0  0  0  0  0  0  0  0
   13.8752   -1.9486    0.0000 C   0  0  0  0  0  0  0  0  0  0  0  0
   14.6252   -0.6495    0.0000 C   0  0  0  0  0  0  0  0  0  0  0  0
   13.8752    0.6495    0.0000 C   0  0  0  0  0  0  0  0  0  0  0  0
   12.3751    0.6495    0.0000 C   0  0  0  0  0  0  0  0  0  0  0  0
   14.6252    1.9486    0.0000 C   0  0  0  0  0  0  0  0  0  0  0  0
   16.1248    1.9486    0.0000 C   0  0  0  0  0  0  0  0  0  0  0  0
   16.8749    0.6495    0.0000 C   0  0  0  0  0  0  0  0  0  0  0  0
   16.1248   -0.6495    0.0000 C   0  0  0  0  0  0  0  0  0  0  0  0
   16.1248   -2.1495    0.0000 C   0  0  0  0  0  0  0  0  0  0  0  0
   17.4240   -1.3995    0.0000 C   0  0  0  0  0  0  0  0  0  0  0  0
  1  2  1  0  0  0  0
  2  3  2  0  0  0  0
  2 25  1  0  0  0  0
  3  4  1  0  0  0  0
  4  5  2  0  0  0  0
  5  6  1  0  0  0  0
  6  7  2  0  0  0  0
  7  8  1  0  0  0  0
  7  9  1  0  0  0  0
  9 10  2  0  0  0  0
 10 11  1  0  0  0  0
 11 12  2  0  0  0  0
 12 13  1  0  0  0  0
 12 14  1  0  0  0  0
 14 15  2  0  0  0  0
 15 16  1  0  0  0  0
 17 16  2  0  0  0  0
 16 22  1  0  0  0  0
 17 18  1  0  0  0  0
 19 17  1  0  0  0  0
 20 19  1  0  0  0  0
 21 20  1  0  0  0  0
 22 21  1  0  0  0  0
 22 23  1  0  0  0  0
 22 24  1  0  0  0  0
 25 26  2  0  0  0  0
 26 27  1  0  0  0  0
 27 28  2  0  0  0  0
 28 29  1  0  0  0  0
 28 30  1  0  0  0  0
 30 31  2  0  0  0  0
 31 32  1  0  0  0  0
 33 32  2  0  0  0  0
 32 38  1  0  0  0  0
 33 34  1  0  0  0  0
 35 33  1  0  0  0  0
 36 35  1  0  0  0  0
 37 36  1  0  0  0  0
 38 37  1  0  0  0  0
 38 39  1  0  0  0  0
 38 40  1  0  0  0  0
M  END
> <Inchi_key>
OENHQHLEOONYIE-VYAWBVGESA-N

> <Source>
Mulliner

> <ID>
HT0267

> <H_MFHB>
0

> <CAS>
7235-40-7

> <Cholestasis>


> <Name>
beta-carotene

> <Class>
0

$$$$