

  -INDIGO-08031710012D

 11 11  0  0  0  0  0  0  0  0999 V2000
    2.6591    4.6057    0.0000 N   0  0  0  0  0  0  0  0  0  0  0  0
    3.4091    3.3066    0.0000 O   0  0  0  0  0  0  0  0  0  0  0  0
    2.6591    2.0076    0.0000 C   0  0  0  0  0  0  0  0  0  0  0  0
    1.1591    2.0076    0.0000 C   0  0  0  0  0  0  0  0  0  0  0  0
    0.4091    0.7086    0.0000 C   0  0  0  0  0  0  0  0  0  0  0  0
    1.1591   -0.5905    0.0000 C   0  0  0  0  0  0  0  0  0  0  0  0
    2.6591   -0.5905    0.0000 C   0  0  0  0  0  0  0  0  0  0  0  0
    3.4091    0.7086    0.0000 C   0  0  0  0  0  0  0  0  0  0  0  0
    4.9091    0.7086    0.0000 C   0  0  0  0  0  0  0  0  0  0  0  0
    5.6591   -0.5905    0.0000 O   0  0  0  0  0  0  0  0  0  0  0  0
    5.6591    2.0076    0.0000 O   0  0  0  0  0  0  0  0  0  0  0  0
  1  2  1  0  0  0  0
  2  3  1  0  0  0  0
  4  3  2  0  0  0  0
  3  8  1  0  0  0  0
  5  4  1  0  0  0  0
  6  5  2  0  0  0  0
  7  6  1  0  0  0  0
  8  7  2  0  0  0  0
  8  9  1  0  0  0  0
  9 10  2  0  0  0  0
  9 11  1  0  0  0  0
M  END
> <Inchi_key>
NBGAYCYFNGPNPV-UHFFFAOYSA-N

> <Source>
Mulliner

> <ID>
HT0353

> <H_MFHB>
0

> <CAS>


> <Cholestasis>


> <Name>
calcium aminosalicylate;potassium aminosalicylate

> <Class>
0


$$$$