

  -INDIGO-08031710012D

 12 12  0  0  0  0  0  0  0  0999 V2000
   10.0254    0.5613    0.0000 O   0  0  0  0  0  0  0  0  0  0  0  0
    8.7264    1.3113    0.0000 C   0  0  0  0  0  0  0  0  0  0  0  0
    8.7264    2.8113    0.0000 O   0  0  0  0  0  0  0  0  0  0  0  0
    7.4274    0.5613    0.0000 C   0  0  0  0  0  0  0  0  0  0  0  0
    6.1283    1.3113    0.0000 C   0  0  0  0  0  0  0  0  0  0  0  0
    4.8292    0.5613    0.0000 C   0  0  0  0  0  0  0  0  0  0  0  0
    3.5301    1.3113    0.0000 C   0  0  0  0  0  0  0  0  0  0  0  0
    2.2313    0.5613    0.0000 C   0  0  0  0  0  0  0  0  0  0  0  0
    0.9321    1.3113    0.0000 C   0  0  0  0  0  0  0  0  0  0  0  0
    0.9321    2.8113    0.0000 C   0  0  0  0  0  0  0  0  0  0  0  0
    2.2313    3.5613    0.0000 C   0  0  0  0  0  0  0  0  0  0  0  0
    3.5301    2.8113    0.0000 C   0  0  0  0  0  0  0  0  0  0  0  0
  1  2  1  0  0  0  0
  2  3  2  0  0  0  0
  2  4  1  0  0  0  0
  4  5  1  0  0  0  0
  5  6  1  0  0  0  0
  6  7  1  0  0  0  0
  8  7  2  0  0  0  0
  7 12  1  0  0  0  0
  9  8  1  0  0  0  0
 10  9  2  0  0  0  0
 11 10  1  0  0  0  0
 12 11  2  0  0  0  0
M  END
> <Inchi_key>
OBKXEAXTFZPCHS-UHFFFAOYSA-N

> <Source>
Mulliner

> <ID>
HT1899

> <H_MFHB>
0

> <CAS>


> <Cholestasis>


> <Name>
sodium phenylbutyrate;phenylbutyric acid

> <Class>
0


$$$$