

  -INDIGO-08031710012D

 11 10  0  0  0  0  0  0  0  0999 V2000
    1.5999    1.5998    0.0000 C   0  0  0  0  0  0  0  0  0  0  0  0
    1.5999    0.0998    0.0000 C   0  0  0  0  0  0  0  0  0  0  0  0
    0.3008   -0.6502    0.0000 C   0  0  0  0  0  0  0  0  0  0  0  0
   -0.9983    0.0998    0.0000 N   0  0  0  0  0  0  0  0  0  0  0  0
   -1.7483   -1.1992    0.0000 C   0  0  0  0  0  0  0  0  0  0  0  0
   -2.2973    0.8498    0.0000 C   0  0  0  0  0  0  0  0  0  0  0  0
   -0.2483    1.3989    0.0000 C   0  0  0  0  0  0  0  0  0  0  0  0
    2.8990   -0.6502    0.0000 O   0  0  0  0  0  0  0  0  0  0  0  0
    4.1979    0.0998    0.0000 C   0  0  0  0  0  0  0  0  0  0  0  0
    4.1979    1.5998    0.0000 O   0  0  0  0  0  0  0  0  0  0  0  0
    5.4969   -0.6502    0.0000 N   0  0  0  0  0  0  0  0  0  0  0  0
  1  2  1  0  0  0  0
  2  3  1  0  0  0  0
  2  8  1  0  0  0  0
  3  4  1  0  0  0  0
  4  5  1  0  0  0  0
  4  6  1  0  0  0  0
  4  7  1  0  0  0  0
  8  9  1  0  0  0  0
  9 10  2  0  0  0  0
  9 11  1  0  0  0  0
M  CHG  1   4   1
M  END
> <Inchi_key>
NZUPCNDJBJXXRF-UHFFFAOYSA-O, NZUPCNDJBJXXRF-UHFFFAOYSA-N

> <Source>
Mulliner, Kotsampasakou

> <ID>
EK0062;HT0277

> <H_MFHB>
0

> <CAS>


> <Cholestasis>
0

> <Name>
bethanechol

> <Class>
0


$$$$