

  -INDIGO-08031710012D

 27 31  0  0  0  0  0  0  0  0999 V2000
   14.8985    3.9198    0.0000 C   0  0  0  0  0  0  0  0  0  0  0  0
   13.5928    3.1816    0.0000 C   0  0  0  0  0  0  0  0  0  0  0  0
   12.3006    3.9432    0.0000 C   0  0  0  0  0  0  0  0  0  0  0  0
   10.9949    3.2051    0.0000 C   0  0  0  0  0  0  0  0  0  0  0  0
    9.7027    3.9670    0.0000 C   0  0  0  0  0  0  0  0  0  0  0  0
    8.3967    3.2287    0.0000 N   0  0  0  0  0  0  0  0  0  0  0  0
    7.1045    3.9904    0.0000 C   0  0  0  0  0  0  0  0  0  0  0  0
    8.3482    4.6963    0.0000 C   0  0  0  0  0  0  0  0  0  0  0  0
    8.3487    6.1327    0.0000 C   0  0  0  0  0  0  0  0  0  0  0  0
    7.1073    6.8527    0.0000 C   0  0  0  0  0  0  0  0  0  0  0  0
    7.1090    8.3527    0.0000 O   0  0  0  0  0  0  0  0  0  0  0  0
    5.8664    6.1369    0.0000 C   0  0  0  0  0  0  0  0  0  0  0  0
    4.1097    6.3617    0.0000 O   0  0  0  0  0  0  0  0  0  0  0  0
    3.3804    4.7250    0.0000 C   0  0  0  0  0  0  0  0  0  0  0  0
    2.1337    4.0116    0.0000 C   0  0  0  0  0  0  0  0  0  0  0  0
    0.8383    4.7677    0.0000 O   0  0  0  0  0  0  0  0  0  0  0  0
    2.1258    2.5794    0.0000 C   0  0  0  0  0  0  0  0  0  0  0  0
    3.3650    1.8616    0.0000 C   0  0  0  0  0  0  0  0  0  0  0  0
    4.6031    2.5673    0.0000 C   0  0  0  0  0  0  0  0  0  0  0  0
    5.8475    1.8418    0.0000 C   0  0  0  0  0  0  0  0  0  0  0  0
    7.0991    2.5465    0.0000 C   0  0  0  0  0  0  0  0  0  0  0  0
    8.1045    1.5082    0.0000 N   0  0  0  0  0  0  0  0  0  0  0  0
    9.4840    0.9193    0.0000 C   0  0  0  0  0  0  0  0  0  0  0  0
    6.6645    1.5159    0.0000 C   0  0  0  0  0  0  0  0  0  0  0  0
    5.4710    3.3067    0.0000 C   0  0  0  0  0  0  0  0  0  0  0  0
    5.8634    4.7104    0.0000 C   0  0  0  0  0  0  0  0  0  0  0  0
    4.6111    3.9996    0.0000 C   0  0  0  0  0  0  0  0  0  0  0  0
  1  2  1  0  0  0  0
  2  3  1  0  0  0  0
  3  4  1  0  0  0  0
  4  5  1  0  0  0  0
  5  6  1  0  0  0  0
  6  7  1  0  0  0  0
  8  7  1  0  0  0  0
 21  7  1  0  0  0  0
  7 26  1  0  0  0  0
  9  8  2  0  0  0  0
 10  9  1  0  0  0  0
 10 11  2  0  0  0  0
 12 10  1  0  0  0  0
 13 12  1  0  0  0  0
 12 26  1  0  0  0  0
 14 13  1  0  0  0  0
 15 14  1  0  0  0  0
 14 27  2  0  0  0  0
 15 16  1  0  0  0  0
 17 15  2  0  0  0  0
 18 17  1  0  0  0  0
 19 18  2  0  0  0  0
 19 20  1  0  0  0  0
 27 19  1  0  0  0  0
 20 21  1  0  0  0  0
 21 22  1  0  0  0  0
 22 23  1  0  0  0  0
 22 24  1  0  0  0  0
 24 25  1  0  0  0  0
 25 26  1  0  0  0  0
 26 27  1  0  0  0  0
M  END
> <Inchi_key>
NRPCWSUJMWEFOK-UHFFFAOYSA-N

> <Source>
Mulliner

> <ID>
HT1619

> <H_MFHB>
0

> <CAS>


> <Cholestasis>


> <Name>
pentamorphone

> <Class>
0


$$$$