

  -INDIGO-08031709442D

 28 31  0  0  0  0  0  0  0  0999 V2000
    0.0005   -0.3208    0.0000 Cl  0  0  0  0  0  0  0  0  0  0  0  0
    1.5006   -0.3159    0.0000 C   0  0  0  0  0  0  0  0  0  0  0  0
    0.7464    0.9807    0.0000 C   0  0  0  0  0  0  0  0  0  0  0  0
   -0.7538    0.9758    0.0000 C   0  0  0  0  0  0  0  0  0  0  0  0
   -1.7611    2.0872    0.0000 C   0  0  0  0  0  0  0  0  0  0  0  0
   -3.1293    1.4726    0.0000 C   0  0  0  0  0  0  0  0  0  0  0  0
   -4.4307    2.2184    0.0000 C   0  0  0  0  0  0  0  0  0  0  0  0
   -2.9676   -0.0186    0.0000 C   0  0  0  0  0  0  0  0  0  0  0  0
   -3.4515   -1.4385    0.0000 O   0  0  0  0  0  0  0  0  0  0  0  0
   -4.4486   -0.2581    0.0000 C   0  0  0  0  0  0  0  0  0  0  0  0
   -5.3963    0.9045    0.0000 O   0  0  0  0  0  0  0  0  0  0  0  0
   -4.9815   -1.6602    0.0000 C   0  0  0  0  0  0  0  0  0  0  0  0
   -6.4622   -1.8997    0.0000 O   0  0  0  0  0  0  0  0  0  0  0  0
   -1.4995   -0.3257    0.0000 C   0  0  0  0  0  0  0  0  0  0  0  0
   -0.7452   -1.6223    0.0000 C   0  0  0  0  0  0  0  0  0  0  0  0
    0.7549   -1.6174    0.0000 C   0  0  0  0  0  0  0  0  0  0  0  0
    1.5089   -2.9140    0.0000 O   0  0  0  0  0  0  0  0  0  0  0  0
   -2.3557   -1.5572    0.0000 C   0  0  0  0  0  0  0  0  0  0  0  0
    1.4921    2.2821    0.0000 C   0  0  0  0  0  0  0  0  0  0  0  0
    2.9920    2.2870    0.0000 C   0  0  0  0  0  0  0  0  0  0  0  0
    3.7462    0.9904    0.0000 C   0  0  0  0  0  0  0  0  0  0  0  0
    5.2464    0.9953    0.0000 C   0  0  0  0  0  0  0  0  0  0  0  0
    6.0006   -0.3013    0.0000 C   0  0  0  0  0  0  0  0  0  0  0  0
    7.5005   -0.2964    0.0000 O   0  0  0  0  0  0  0  0  0  0  0  0
    5.2547   -1.6027    0.0000 C   0  0  0  0  0  0  0  0  0  0  0  0
    3.7547   -1.6076    0.0000 C   0  0  0  0  0  0  0  0  0  0  0  0
    3.0005   -0.3110    0.0000 C   0  0  0  0  0  0  0  0  0  0  0  0
    2.2546   -1.6125    0.0000 C   0  0  0  0  0  0  0  0  0  0  0  0
  1  2  1  0  0  0  0
  3  2  1  0  0  0  0
 16  2  1  0  0  0  0
  2 27  1  0  0  0  0
  3  4  1  0  0  0  0
 19  3  1  0  0  0  0
  5  4  1  0  0  0  0
  4 14  1  0  0  0  0
  6  5  1  0  0  0  0
  6  7  1  0  0  0  0
  8  6  1  0  0  0  0
  8  9  1  0  0  0  0
  8 10  1  0  0  0  0
 14  8  1  0  0  0  0
 10 11  2  0  0  0  0
 10 12  1  0  0  0  0
 12 13  1  0  0  0  0
 14 15  1  0  0  0  0
 14 18  1  0  0  0  0
 15 16  1  0  0  0  0
 16 17  1  0  0  0  0
 20 19  1  0  0  0  0
 21 20  1  0  0  0  0
 22 21  2  0  0  0  0
 21 27  1  0  0  0  0
 23 22  1  0  0  0  0
 23 24  2  0  0  0  0
 25 23  1  0  0  0  0
 26 25  2  0  0  0  0
 27 26  1  0  0  0  0
 27 28  1  0  0  0  0
M  END
> <Inchi_key>
NBMKJKDGKREAPL-UHFFFAOYSA-N

> <Source>
Kotsampasakou

> <ID>
EK0053

> <H_MFHB>


> <CAS>


> <Cholestasis>
0

> <Name>
beclomethasone

> <Class>
0


$$$$