

  -INDIGO-08031710012D

 29 32  0  0  0  0  0  0  0  0999 V2000
    4.7526   -5.8894    0.0000 C   0  0  0  0  0  0  0  0  0  0  0  0
    5.0693   -4.4233    0.0000 C   0  0  0  0  0  0  0  0  0  0  0  0
    6.4976   -3.9646    0.0000 C   0  0  0  0  0  0  0  0  0  0  0  0
    7.6089   -4.9721    0.0000 C   0  0  0  0  0  0  0  0  0  0  0  0
    9.0370   -4.5135    0.0000 C   0  0  0  0  0  0  0  0  0  0  0  0
   10.1483   -5.5210    0.0000 O   0  0  0  0  0  0  0  0  0  0  0  0
    9.3540   -3.0473    0.0000 O   0  0  0  0  0  0  0  0  0  0  0  0
    3.9580   -3.4158    0.0000 C   0  0  0  0  0  0  0  0  0  0  0  0
    4.1199   -1.9245    0.0000 C   0  0  0  0  0  0  0  0  0  0  0  0
    2.7519   -1.3098    0.0000 C   0  0  0  0  0  0  0  0  0  0  0  0
    1.7442   -2.4210    0.0000 C   0  0  0  0  0  0  0  0  0  0  0  0
    0.2443   -2.4159    0.0000 C   0  0  0  0  0  0  0  0  0  0  0  0
   -0.5013   -1.1143    0.0000 C   0  0  0  0  0  0  0  0  0  0  0  0
    0.2532    0.1821    0.0000 O   0  0  0  0  0  0  0  0  0  0  0  0
   -2.0013   -1.1092    0.0000 C   0  0  0  0  0  0  0  0  0  0  0  0
   -2.7557   -2.4057    0.0000 C   0  0  0  0  0  0  0  0  0  0  0  0
   -4.2557   -2.4006    0.0000 C   0  0  0  0  0  0  0  0  0  0  0  0
   -5.0101   -3.6970    0.0000 C   0  0  0  0  0  0  0  0  0  0  0  0
   -6.5101   -3.6919    0.0000 O   0  0  0  0  0  0  0  0  0  0  0  0
   -4.2646   -4.9986    0.0000 C   0  0  0  0  0  0  0  0  0  0  0  0
   -2.7646   -5.0037    0.0000 C   0  0  0  0  0  0  0  0  0  0  0  0
   -2.0102   -3.7073    0.0000 C   0  0  0  0  0  0  0  0  0  0  0  0
   -1.2646   -5.0089    0.0000 C   0  0  0  0  0  0  0  0  0  0  0  0
   -0.5102   -3.7124    0.0000 C   0  0  0  0  0  0  0  0  0  0  0  0
    0.2354   -5.0140    0.0000 C   0  0  0  0  0  0  0  0  0  0  0  0
    1.7353   -5.0191    0.0000 C   0  0  0  0  0  0  0  0  0  0  0  0
    2.4809   -6.3207    0.0000 O   0  0  0  0  0  0  0  0  0  0  0  0
    2.4898   -3.7226    0.0000 C   0  0  0  0  0  0  0  0  0  0  0  0
    3.3459   -4.9543    0.0000 C   0  0  0  0  0  0  0  0  0  0  0  0
  1  2  1  0  0  0  0
  2  3  1  0  0  0  0
  2  8  1  0  0  0  0
  3  4  1  0  0  0  0
  4  5  1  0  0  0  0
  5  6  2  0  0  0  0
  5  7  1  0  0  0  0
  9  8  1  0  0  0  0
  8 28  1  0  0  0  0
 10  9  1  0  0  0  0
 11 10  1  0  0  0  0
 12 11  1  0  0  0  0
 11 28  1  0  0  0  0
 13 12  1  0  0  0  0
 12 24  1  0  0  0  0
 13 14  1  0  0  0  0
 15 13  1  0  0  0  0
 16 15  1  0  0  0  0
 17 16  1  0  0  0  0
 16 22  1  0  0  0  0
 18 17  1  0  0  0  0
 18 19  1  0  0  0  0
 20 18  1  0  0  0  0
 21 20  1  0  0  0  0
 22 21  1  0  0  0  0
 22 23  1  0  0  0  0
 24 22  1  0  0  0  0
 25 24  1  0  0  0  0
 26 25  1  0  0  0  0
 26 27  1  0  0  0  0
 28 26  1  0  0  0  0
 28 29  1  0  0  0  0
M  END
> <Inchi_key>
BHQCQFFYRZLCQQ-UHFFFAOYSA-N

> <Source>
Mulliner

> <ID>
HT0475

> <H_MFHB>
0

> <CAS>
81-25-4

> <Cholestasis>


> <Name>
cholic acid

> <Class>
0


$$$$