

  -INDIGO-08031710012D

 38 43  0  0  0  0  0  0  0  0999 V2000
    6.3591   11.0287    0.0000 C   0  0  0  0  0  0  0  0  0  0  0  0
    7.1105    9.7305    0.0000 C   0  0  0  0  0  0  0  0  0  0  0  0
    6.3620    8.4306    0.0000 O   0  0  0  0  0  0  0  0  0  0  0  0
    7.1135    7.1324    0.0000 C   0  0  0  0  0  0  0  0  0  0  0  0
    6.3650    5.8327    0.0000 O   0  0  0  0  0  0  0  0  0  0  0  0
    4.8650    5.8309    0.0000 C   0  0  0  0  0  0  0  0  0  0  0  0
    4.1135    7.1289    0.0000 C   0  0  0  0  0  0  0  0  0  0  0  0
    2.6135    7.1273    0.0000 C   0  0  0  0  0  0  0  0  0  0  0  0
    1.8650    5.8275    0.0000 C   0  0  0  0  0  0  0  0  0  0  0  0
    1.1363    7.1386    0.0000 C   0  0  0  0  0  0  0  0  0  0  0  0
    0.3650    5.8258    0.0000 C   0  0  0  0  0  0  0  0  0  0  0  0
   -0.3865    7.1239    0.0000 C   0  0  0  0  0  0  0  0  0  0  0  0
   -1.8865    7.1222    0.0000 C   0  0  0  0  0  0  0  0  0  0  0  0
   -2.6350    5.8224    0.0000 C   0  0  0  0  0  0  0  0  0  0  0  0
   -3.4751    7.0650    0.0000 C   0  0  0  0  0  0  0  0  0  0  0  0
   -4.1018    5.5088    0.0000 C   0  0  0  0  0  0  0  0  0  0  0  0
   -4.2571    4.0168    0.0000 C   0  0  0  0  0  0  0  0  0  0  0  0
   -2.8861    3.4083    0.0000 C   0  0  0  0  0  0  0  0  0  0  0  0
   -1.8835    4.5242    0.0000 C   0  0  0  0  0  0  0  0  0  0  0  0
   -1.2719    3.1545    0.0000 O   0  0  0  0  0  0  0  0  0  0  0  0
   -0.3835    4.5259    0.0000 C   0  0  0  0  0  0  0  0  0  0  0  0
    0.3680    3.2277    0.0000 C   0  0  0  0  0  0  0  0  0  0  0  0
    1.8680    3.2294    0.0000 C   0  0  0  0  0  0  0  0  0  0  0  0
    2.6165    4.5293    0.0000 C   0  0  0  0  0  0  0  0  0  0  0  0
    4.1165    4.5310    0.0000 C   0  0  0  0  0  0  0  0  0  0  0  0
   -5.2176    6.5113    0.0000 C   0  0  0  0  0  0  0  0  0  0  0  0
   -4.9075    7.9788    0.0000 C   0  0  0  0  0  0  0  0  0  0  0  0
   -6.0233    8.9813    0.0000 O   0  0  0  0  0  0  0  0  0  0  0  0
   -7.4495    8.5161    0.0000 C   0  0  0  0  0  0  0  0  0  0  0  0
   -8.5653    9.5185    0.0000 O   0  0  0  0  0  0  0  0  0  0  0  0
   -7.7596    7.0485    0.0000 C   0  0  0  0  0  0  0  0  0  0  0  0
   -6.6438    6.0461    0.0000 C   0  0  0  0  0  0  0  0  0  0  0  0
    8.6135    7.1341    0.0000 C   0  0  0  0  0  0  0  0  0  0  0  0
    9.3650    5.8360    0.0000 O   0  0  0  0  0  0  0  0  0  0  0  0
    9.3620    8.4340    0.0000 C   0  0  0  0  0  0  0  0  0  0  0  0
   10.8620    8.4357    0.0000 O   0  0  0  0  0  0  0  0  0  0  0  0
    8.6105    9.7322    0.0000 C   0  0  0  0  0  0  0  0  0  0  0  0
    9.3590   11.0321    0.0000 O   0  0  0  0  0  0  0  0  0  0  0  0
  1  2  1  0  0  0  0
  3  2  1  0  0  0  0
  2 37  1  0  0  0  0
  4  3  1  0  0  0  0
  4  5  1  0  0  0  0
 33  4  1  0  0  0  0
  5  6  1  0  0  0  0
  7  6  1  0  0  0  0
  6 25  1  0  0  0  0
  8  7  1  0  0  0  0
  9  8  1  0  0  0  0
  9 10  1  0  0  0  0
 11  9  1  0  0  0  0
  9 24  1  0  0  0  0
 12 11  1  0  0  0  0
 11 21  1  0  0  0  0
 13 12  1  0  0  0  0
 14 13  1  0  0  0  0
 14 15  1  0  0  0  0
 16 14  1  0  0  0  0
 14 19  1  0  0  0  0
 17 16  1  0  0  0  0
 16 26  1  0  0  0  0
 18 17  1  0  0  0  0
 19 18  1  0  0  0  0
 19 20  1  0  0  0  0
 21 19  1  0  0  0  0
 22 21  1  0  0  0  0
 23 22  1  0  0  0  0
 24 23  1  0  0  0  0
 25 24  2  0  0  0  0
 27 26  2  0  0  0  0
 26 32  1  0  0  0  0
 28 27  1  0  0  0  0
 29 28  1  0  0  0  0
 29 30  2  0  0  0  0
 31 29  1  0  0  0  0
 32 31  2  0  0  0  0
 33 34  1  0  0  0  0
 35 33  1  0  0  0  0
 35 36  1  0  0  0  0
 37 35  1  0  0  0  0
 37 38  1  0  0  0  0
M  END
> <Inchi_key>
MYEJFUXQJGHEQK-UHFFFAOYSA-N

> <Source>
Mulliner

> <ID>
HT3908

> <H_MFHB>
0

> <CAS>


> <Cholestasis>


> <Name>


> <Class>
0


$$$$