

  -INDIGO-08031710012D

 24 26  0  0  0  0  0  0  0  0999 V2000
   -2.1192    1.2235    0.0000 C   0  0  0  0  0  0  0  0  0  0  0  0
   -2.8692    2.5227    0.0000 C   0  0  0  0  0  0  0  0  0  0  0  0
   -2.1192    3.8215    0.0000 N   0  0  0  0  0  0  0  0  0  0  0  0
   -2.8692    5.1206    0.0000 C   0  0  0  0  0  0  0  0  0  0  0  0
   -4.3692    5.1206    0.0000 C   0  0  0  0  0  0  0  0  0  0  0  0
   -0.6191    3.8215    0.0000 C   0  0  0  0  0  0  0  0  0  0  0  0
    0.1309    5.1206    0.0000 C   0  0  0  0  0  0  0  0  0  0  0  0
    1.6309    5.1206    0.0000 C   0  0  0  0  0  0  0  0  0  0  0  0
    2.3809    6.4197    0.0000 N   0  0  0  0  0  0  0  0  0  0  0  0
    3.8807    6.4197    0.0000 C   0  0  0  0  0  0  0  0  0  0  0  0
    4.7624    7.6331    0.0000 C   0  0  0  0  0  0  0  0  0  0  0  0
    6.1892    7.1697    0.0000 C   0  0  0  0  0  0  0  0  0  0  0  0
    7.4880    7.9197    0.0000 C   0  0  0  0  0  0  0  0  0  0  0  0
    8.7871    7.1697    0.0000 C   0  0  0  0  0  0  0  0  0  0  0  0
    8.7871    5.6698    0.0000 C   0  0  0  0  0  0  0  0  0  0  0  0
    7.4880    4.9197    0.0000 C   0  0  0  0  0  0  0  0  0  0  0  0
    6.1892    5.6698    0.0000 C   0  0  0  0  0  0  0  0  0  0  0  0
    4.7624    5.2060    0.0000 C   0  0  0  0  0  0  0  0  0  0  0  0
    1.6309    7.7188    0.0000 C   0  0  0  0  0  0  0  0  0  0  0  0
    2.3809    9.0176    0.0000 C   0  0  0  0  0  0  0  0  0  0  0  0
    1.6309   10.3168    0.0000 C   0  0  0  0  0  0  0  0  0  0  0  0
    0.1309   10.3168    0.0000 C   0  0  0  0  0  0  0  0  0  0  0  0
   -0.6191    9.0176    0.0000 C   0  0  0  0  0  0  0  0  0  0  0  0
    0.1309    7.7188    0.0000 C   0  0  0  0  0  0  0  0  0  0  0  0
  1  2  1  0  0  0  0
  2  3  1  0  0  0  0
  3  4  1  0  0  0  0
  3  6  1  0  0  0  0
  4  5  1  0  0  0  0
  6  7  1  0  0  0  0
  7  8  1  0  0  0  0
  8  9  1  0  0  0  0
  9 10  1  0  0  0  0
  9 19  1  0  0  0  0
 11 10  1  0  0  0  0
 10 18  1  0  0  0  0
 12 11  1  0  0  0  0
 13 12  1  0  0  0  0
 12 17  2  0  0  0  0
 14 13  2  0  0  0  0
 15 14  1  0  0  0  0
 16 15  2  0  0  0  0
 17 16  1  0  0  0  0
 18 17  1  0  0  0  0
 20 19  2  0  0  0  0
 19 24  1  0  0  0  0
 21 20  1  0  0  0  0
 22 21  2  0  0  0  0
 23 22  1  0  0  0  0
 24 23  2  0  0  0  0
M  END
> <Inchi_key>
NZLBHDRPUJLHCE-UHFFFAOYSA-N

> <Source>
Mulliner

> <ID>
HT0174

> <H_MFHB>
0

> <CAS>


> <Cholestasis>


> <Name>
aprindine

> <Class>
0


$$$$