

  -INDIGO-08031710012D

 21 22  0  0  0  0  0  0  0  0999 V2000
    3.4642    1.0516    0.0000 C   0  0  0  0  0  0  0  0  0  0  0  0
    4.2142   -0.2474    0.0000 C   0  0  0  0  0  0  0  0  0  0  0  0
    3.4642   -1.5465    0.0000 N   0  0  0  0  0  0  0  0  0  0  0  0
    4.2142   -2.8455    0.0000 C   0  0  0  0  0  0  0  0  0  0  0  0
    5.7143   -2.8455    0.0000 C   0  0  0  0  0  0  0  0  0  0  0  0
    6.4643   -4.1446    0.0000 C   0  0  0  0  0  0  0  0  0  0  0  0
    7.9643   -4.1446    0.0000 C   0  0  0  0  0  0  0  0  0  0  0  0
    8.7143   -2.8455    0.0000 N   0  0  0  0  0  0  0  0  0  0  0  0
    7.9643   -1.5465    0.0000 C   0  0  0  0  0  0  0  0  0  0  0  0
    6.4643   -1.5465    0.0000 C   0  0  0  0  0  0  0  0  0  0  0  0
    1.9644   -1.5465    0.0000 C   0  0  0  0  0  0  0  0  0  0  0  0
    1.2144   -0.2474    0.0000 O   0  0  0  0  0  0  0  0  0  0  0  0
    1.2144   -2.8455    0.0000 C   0  0  0  0  0  0  0  0  0  0  0  0
    1.9644   -4.1446    0.0000 C   0  0  0  0  0  0  0  0  0  0  0  0
    1.2144   -5.4436    0.0000 O   0  0  0  0  0  0  0  0  0  0  0  0
   -0.2857   -2.8455    0.0000 C   0  0  0  0  0  0  0  0  0  0  0  0
   -1.0357   -4.1446    0.0000 C   0  0  0  0  0  0  0  0  0  0  0  0
   -2.5357   -4.1446    0.0000 C   0  0  0  0  0  0  0  0  0  0  0  0
   -3.2857   -2.8455    0.0000 C   0  0  0  0  0  0  0  0  0  0  0  0
   -2.5357   -1.5465    0.0000 C   0  0  0  0  0  0  0  0  0  0  0  0
   -1.0357   -1.5465    0.0000 C   0  0  0  0  0  0  0  0  0  0  0  0
  1  2  1  0  0  0  0
  2  3  1  0  0  0  0
  3  4  1  0  0  0  0
  3 11  1  0  0  0  0
  4  5  1  0  0  0  0
  6  5  2  0  0  0  0
  5 10  1  0  0  0  0
  7  6  1  0  0  0  0
  8  7  2  0  0  0  0
  9  8  1  0  0  0  0
 10  9  2  0  0  0  0
 11 12  2  0  0  0  0
 11 13  1  0  0  0  0
 13 14  1  0  0  0  0
 13 16  1  0  0  0  0
 14 15  1  0  0  0  0
 17 16  2  0  0  0  0
 16 21  1  0  0  0  0
 18 17  1  0  0  0  0
 19 18  2  0  0  0  0
 20 19  1  0  0  0  0
 21 20  2  0  0  0  0
M  END
> <Inchi_key>
BGDKAVGWHJFAGW-UHFFFAOYSA-N

> <Source>
Mulliner , Kotsampasakou

> <ID>
EK0558;HT2140

> <H_MFHB>
0

> <CAS>


> <Cholestasis>
0

> <Name>
tropicamide

> <Class>
0


$$$$