
  -INDIGO-08031710012D

 30 33  0  0  0  0  0  0  0  0999 V2000
   17.6232   -3.0720    0.0000 O   0  0  0  0  0  0  0  0  0  0  0  0
   16.3242   -3.8220    0.0000 C   0  0  0  0  0  0  0  0  0  0  0  0
   15.0252   -3.0720    0.0000 C   0  0  0  0  0  0  0  0  0  0  0  0
   13.7261   -3.8220    0.0000 N   0  0  0  0  0  0  0  0  0  0  0  0
   12.4269   -3.0720    0.0000 C   0  0  0  0  0  0  0  0  0  0  0  0
   11.1279   -3.8220    0.0000 C   0  0  0  0  0  0  0  0  0  0  0  0
   11.1279   -5.3222    0.0000 N   0  0  0  0  0  0  0  0  0  0  0  0
    9.8289   -6.0721    0.0000 C   0  0  0  0  0  0  0  0  0  0  0  0
    8.5299   -5.3222    0.0000 C   0  0  0  0  0  0  0  0  0  0  0  0
    8.5299   -3.8220    0.0000 C   0  0  0  0  0  0  0  0  0  0  0  0
    7.2308   -3.0720    0.0000 C   0  0  0  0  0  0  0  0  0  0  0  0
    7.2308   -1.5721    0.0000 C   0  0  0  0  0  0  0  0  0  0  0  0
    8.5299   -0.8221    0.0000 C   0  0  0  0  0  0  0  0  0  0  0  0
    8.5299    0.6779    0.0000 C   0  0  0  0  0  0  0  0  0  0  0  0
    7.2308    1.4279    0.0000 C   0  0  0  0  0  0  0  0  0  0  0  0
    5.9318    0.6779    0.0000 C   0  0  0  0  0  0  0  0  0  0  0  0
    5.9318   -0.8221    0.0000 C   0  0  0  0  0  0  0  0  0  0  0  0
    4.6328   -1.5721    0.0000 S   0  0  0  0  0  0  0  0  0  0  0  0
    4.6328   -3.0720    0.0000 C   0  0  0  0  0  0  0  0  0  0  0  0
    3.3338   -3.8220    0.0000 C   0  0  0  0  0  0  0  0  0  0  0  0
    3.3338   -5.3222    0.0000 C   0  0  0  0  0  0  0  0  0  0  0  0
    4.6328   -6.0721    0.0000 C   0  0  0  0  0  0  0  0  0  0  0  0
    5.9318   -5.3222    0.0000 C   0  0  0  0  0  0  0  0  0  0  0  0
    5.9318   -3.8220    0.0000 C   0  0  0  0  0  0  0  0  0  0  0  0
    4.6328   -7.5721    0.0000 C   0  0  0  0  0  0  0  0  0  0  0  0
    4.6328   -9.0721    0.0000 F   0  0  0  0  0  0  0  0  0  0  0  0
    6.1328   -7.5721    0.0000 F   0  0  0  0  0  0  0  0  0  0  0  0
    3.1328   -7.5721    0.0000 F   0  0  0  0  0  0  0  0  0  0  0  0
   12.4269   -6.0721    0.0000 C   0  0  0  0  0  0  0  0  0  0  0  0
   13.7261   -5.3222    0.0000 C   0  0  0  0  0  0  0  0  0  0  0  0
  1  2  1  0  0  0  0
  2  3  1  0  0  0  0
  3  4  1  0  0  0  0
  5  4  1  0  0  0  0
  4 30  1  0  0  0  0
  6  5  1  0  0  0  0
  7  6  1  0  0  0  0
  7  8  1  0  0  0  0
 29  7  1  0  0  0  0
  8  9  1  0  0  0  0
  9 10  1  0  0  0  0
 10 11  2  0  0  0  0
 12 11  1  0  0  0  0
 11 24  1  0  0  0  0
 13 12  2  0  0  0  0
 12 17  1  0  0  0  0
 14 13  1  0  0  0  0
 15 14  2  0  0  0  0
 16 15  1  0  0  0  0
 17 16  2  0  0  0  0
 18 17  1  0  0  0  0
 19 18  1  0  0  0  0
 20 19  2  0  0  0  0
 19 24  1  0  0  0  0
 21 20  1  0  0  0  0
 22 21  2  0  0  0  0
 23 22  1  0  0  0  0
 22 25  1  0  0  0  0
 24 23  2  0  0  0  0
 25 26  1  0  0  0  0
 25 27  1  0  0  0  0
 25 28  1  0  0  0  0
 30 29  1  0  0  0  0
M  END
> <Inchi_key>
NJMYODHXAKYRHW-DVZOWYKESA-N

> <Source>
Mulliner , Kotsampasakou

> <ID>
EK0226;HT0912

> <H_MFHB>
0

> <CAS>


> <Cholestasis>
0

> <Name>
flupenthixol

> <Class>
0

$$$$