
  -INDIGO-08031710012D

 24 25  0  0  0  0  0  0  0  0999 V2000
    8.3457    8.3457    0.0000 C   0  0  0  0  0  0  0  0  0  0  0  0
    8.3457    6.8457    0.0000 O   0  0  0  0  0  0  0  0  0  0  0  0
    7.0466    6.0957    0.0000 C   0  0  0  0  0  0  0  0  0  0  0  0
    5.7477    6.8457    0.0000 C   0  0  0  0  0  0  0  0  0  0  0  0
    4.4486    6.0957    0.0000 C   0  0  0  0  0  0  0  0  0  0  0  0
    4.4486    4.5957    0.0000 C   0  0  0  0  0  0  0  0  0  0  0  0
    3.1495    3.8457    0.0000 C   0  0  0  0  0  0  0  0  0  0  0  0
    1.8505    4.5957    0.0000 C   0  0  0  0  0  0  0  0  0  0  0  0
    1.8505    6.0957    0.0000 C   0  0  0  0  0  0  0  0  0  0  0  0
    3.1495    6.8457    0.0000 O   0  0  0  0  0  0  0  0  0  0  0  0
    0.5514    6.8457    0.0000 N   0  0  0  0  0  0  0  0  0  0  0  0
   -0.7477    6.0957    0.0000 C   0  0  0  0  0  0  0  0  0  0  0  0
   -0.7477    4.5957    0.0000 C   0  0  0  0  0  0  0  0  0  0  0  0
   -2.0466    3.8457    0.0000 C   0  0  0  0  0  0  0  0  0  0  0  0
   -3.3457    4.5957    0.0000 C   0  0  0  0  0  0  0  0  0  0  0  0
   -3.3457    6.0957    0.0000 C   0  0  0  0  0  0  0  0  0  0  0  0
   -2.0466    6.8457    0.0000 C   0  0  0  0  0  0  0  0  0  0  0  0
   -2.0466    8.3457    0.0000 C   0  0  0  0  0  0  0  0  0  0  0  0
   -0.7477    9.0957    0.0000 O   0  0  0  0  0  0  0  0  0  0  0  0
   -3.3457    9.0957    0.0000 O   0  0  0  0  0  0  0  0  0  0  0  0
    5.7477    3.8457    0.0000 C   0  0  0  0  0  0  0  0  0  0  0  0
    7.0466    4.5957    0.0000 C   0  0  0  0  0  0  0  0  0  0  0  0
    8.3457    3.8457    0.0000 O   0  0  0  0  0  0  0  0  0  0  0  0
    8.3457    2.3457    0.0000 C   0  0  0  0  0  0  0  0  0  0  0  0
  1  2  1  0  0  0  0
  2  3  1  0  0  0  0
  4  3  2  0  0  0  0
  3 22  1  0  0  0  0
  5  4  1  0  0  0  0
  6  5  2  0  0  0  0
  6  7  1  0  0  0  0
 21  6  1  0  0  0  0
  7  8  2  0  0  0  0
  8  9  1  0  0  0  0
  9 10  2  0  0  0  0
  9 11  1  0  0  0  0
 11 12  1  0  0  0  0
 13 12  2  0  0  0  0
 12 17  1  0  0  0  0
 14 13  1  0  0  0  0
 15 14  2  0  0  0  0
 16 15  1  0  0  0  0
 17 16  2  0  0  0  0
 17 18  1  0  0  0  0
 18 19  2  0  0  0  0
 18 20  1  0  0  0  0
 22 21  2  0  0  0  0
 22 23  1  0  0  0  0
 23 24  1  0  0  0  0
M  END
> <Inchi_key>
NZHGWWWHIYHZNX-NTMALXAHSA-N

> <Source>
Mulliner

> <ID>
HT2098

> <H_MFHB>
0

> <CAS>
53902-12-8

> <Cholestasis>


> <Name>
tranilast

> <Class>
0

$$$$