
  -INDIGO-08031710012D

 12 11  0  0  0  0  0  0  0  0999 V2000
    0.0000    2.5066    0.0000 C   0  0  0  0  0  0  0  0  0  0  0  0
    1.5000    2.5066    0.0000 O   0  0  0  0  0  0  0  0  0  0  0  0
    2.2500    1.2075    0.0000 P   0  0  0  0  0  0  0  0  0  0  0  0
    3.0000   -0.0915    0.0000 O   0  0  0  0  0  0  0  0  0  0  0  0
    0.9510    0.4575    0.0000 O   0  0  0  0  0  0  0  0  0  0  0  0
    0.9510   -1.0425    0.0000 C   0  0  0  0  0  0  0  0  0  0  0  0
    3.5490    1.9575    0.0000 C   0  0  0  0  0  0  0  0  0  0  0  0
    3.5490    3.4575    0.0000 O   0  0  0  0  0  0  0  0  0  0  0  0
    4.8481    1.2075    0.0000 C   0  0  0  0  0  0  0  0  0  0  0  0
    5.5981    2.5066    0.0000 Cl  0  0  0  0  0  0  0  0  0  0  0  0
    4.0981   -0.0915    0.0000 Cl  0  0  0  0  0  0  0  0  0  0  0  0
    6.1471    0.4575    0.0000 Cl  0  0  0  0  0  0  0  0  0  0  0  0
  1  2  1  0  0  0  0
  2  3  1  0  0  0  0
  3  4  2  0  0  0  0
  3  5  1  0  0  0  0
  3  7  1  0  0  0  0
  5  6  1  0  0  0  0
  7  8  1  0  0  0  0
  7  9  1  0  0  0  0
  9 10  1  0  0  0  0
  9 11  1  0  0  0  0
  9 12  1  0  0  0  0
M  END
> <Inchi_key>
NFACJZMKEDPNKN-UHFFFAOYSA-N

> <Source>
Mulliner

> <ID>
HT2111

> <H_MFHB>
0

> <CAS>
52-68-6

> <Cholestasis>


> <Name>
trichlorfon;metrifonate

> <Class>
0

$$$$