

  -INDIGO-08031710012D

 25 28  0  0  0  0  0  0  0  0999 V2000
    2.2501    5.1720    0.0000 C   0  0  0  0  0  0  0  0  0  0  0  0
    1.5001    3.8730    0.0000 N   0  0  0  0  0  0  0  0  0  0  0  0
    2.2501    2.5740    0.0000 C   0  0  0  0  0  0  0  0  0  0  0  0
    1.5001    1.2749    0.0000 C   0  0  0  0  0  0  0  0  0  0  0  0
    2.2501   -0.0241    0.0000 O   0  0  0  0  0  0  0  0  0  0  0  0
    3.7499   -0.0241    0.0000 C   0  0  0  0  0  0  0  0  0  0  0  0
    4.4999   -1.3232    0.0000 O   0  0  0  0  0  0  0  0  0  0  0  0
    4.4999    1.2749    0.0000 N   0  0  0  0  0  0  0  0  0  0  0  0
    3.7499    2.5740    0.0000 C   0  0  0  0  0  0  0  0  0  0  0  0
    4.4999    3.8730    0.0000 O   0  0  0  0  0  0  0  0  0  0  0  0
    6.0000    1.2749    0.0000 C   0  0  0  0  0  0  0  0  0  0  0  0
    6.7500    2.5740    0.0000 C   0  0  0  0  0  0  0  0  0  0  0  0
    8.2500    2.5740    0.0000 C   0  0  0  0  0  0  0  0  0  0  0  0
    9.0000    1.2749    0.0000 C   0  0  0  0  0  0  0  0  0  0  0  0
    8.2500   -0.0241    0.0000 C   0  0  0  0  0  0  0  0  0  0  0  0
    6.7500   -0.0241    0.0000 N   0  0  0  0  0  0  0  0  0  0  0  0
    0.0000    1.2749    0.0000 C   0  0  0  0  0  0  0  0  0  0  0  0
   -0.7500   -0.0241    0.0000 C   0  0  0  0  0  0  0  0  0  0  0  0
   -2.2500   -0.0241    0.0000 C   0  0  0  0  0  0  0  0  0  0  0  0
   -3.0000    1.2749    0.0000 C   0  0  0  0  0  0  0  0  0  0  0  0
   -2.2500    2.5740    0.0000 C   0  0  0  0  0  0  0  0  0  0  0  0
   -0.7500    2.5740    0.0000 C   0  0  0  0  0  0  0  0  0  0  0  0
    0.0000    3.8730    0.0000 S   0  0  0  0  0  0  0  0  0  0  0  0
    0.0000    5.3730    0.0000 O   0  0  0  0  0  0  0  0  0  0  0  0
   -1.2989    4.6230    0.0000 O   0  0  0  0  0  0  0  0  0  0  0  0
  1  2  1  0  0  0  0
  3  2  1  0  0  0  0
  2 23  1  0  0  0  0
  3  4  2  0  0  0  0
  9  3  1  0  0  0  0
  4  5  1  0  0  0  0
 17  4  1  0  0  0  0
  5  6  1  0  0  0  0
  6  7  2  0  0  0  0
  6  8  1  0  0  0  0
  8  9  1  0  0  0  0
  8 11  1  0  0  0  0
  9 10  2  0  0  0  0
 12 11  2  0  0  0  0
 11 16  1  0  0  0  0
 13 12  1  0  0  0  0
 14 13  2  0  0  0  0
 15 14  1  0  0  0  0
 16 15  2  0  0  0  0
 18 17  1  0  0  0  0
 17 22  2  0  0  0  0
 19 18  2  0  0  0  0
 20 19  1  0  0  0  0
 21 20  2  0  0  0  0
 22 21  1  0  0  0  0
 23 22  1  0  0  0  0
 23 24  2  0  0  0  0
 23 25  2  0  0  0  0
M  END
> <Inchi_key>
OEHFRZLKGRKFAS-UHFFFAOYSA-N

> <Source>
Mulliner

> <ID>
HT0730

> <H_MFHB>
0

> <CAS>


> <Cholestasis>


> <Name>
droxicam

> <Class>
0


$$$$