

  -INDIGO-08031710012D

 16 16  0  0  0  0  0  0  0  0999 V2000
    0.7092   -2.6468    0.0000 C   0  0  0  0  0  0  0  0  0  0  0  0
    2.0082   -1.8968    0.0000 C   0  0  0  0  0  0  0  0  0  0  0  0
    3.3072   -2.6468    0.0000 N   0  0  0  0  0  0  0  0  0  0  0  0
    4.6063   -1.8968    0.0000 C   0  0  0  0  0  0  0  0  0  0  0  0
    4.6063   -0.3968    0.0000 C   0  0  0  0  0  0  0  0  0  0  0  0
    5.9053    0.3532    0.0000 C   0  0  0  0  0  0  0  0  0  0  0  0
    7.2045   -0.3968    0.0000 O   0  0  0  0  0  0  0  0  0  0  0  0
    8.5033    0.3532    0.0000 P   0  0  0  0  0  0  0  0  0  0  0  0
    9.2534   -0.9458    0.0000 O   0  0  0  0  0  0  0  0  0  0  0  0
    7.7534    1.6523    0.0000 O   0  0  0  0  0  0  0  0  0  0  0  0
    9.8025    1.1032    0.0000 O   0  0  0  0  0  0  0  0  0  0  0  0
    3.3072    0.3532    0.0000 C   0  0  0  0  0  0  0  0  0  0  0  0
    3.3072    1.8532    0.0000 C   0  0  0  0  0  0  0  0  0  0  0  0
    2.0082    2.6032    0.0000 O   0  0  0  0  0  0  0  0  0  0  0  0
    2.0082   -0.3968    0.0000 C   0  0  0  0  0  0  0  0  0  0  0  0
    0.7092    0.3532    0.0000 O   0  0  0  0  0  0  0  0  0  0  0  0
  1  2  1  0  0  0  0
  3  2  2  0  0  0  0
  2 15  1  0  0  0  0
  4  3  1  0  0  0  0
  5  4  2  0  0  0  0
  5  6  1  0  0  0  0
 12  5  1  0  0  0  0
  6  7  1  0  0  0  0
  7  8  1  0  0  0  0
  8  9  2  0  0  0  0
  8 10  1  0  0  0  0
  8 11  1  0  0  0  0
 12 13  1  0  0  0  0
 15 12  2  0  0  0  0
 13 14  2  0  0  0  0
 15 16  1  0  0  0  0
M  END
> <Inchi_key>
NGVDGCNFYWLIFO-UHFFFAOYSA-N

> <Source>
Mulliner

> <ID>
HT1778

> <H_MFHB>
0

> <CAS>


> <Cholestasis>


> <Name>
pyridoxal phosphate

> <Class>
0


$$$$