
  -INDIGO-08031710012D

 23 24  0  0  0  0  0  0  0  0999 V2000
   11.0954   -2.9730    0.0000 C   0  0  0  0  0  0  0  0  0  0  0  0
    9.7963   -2.2230    0.0000 C   0  0  0  0  0  0  0  0  0  0  0  0
    8.4973   -2.9730    0.0000 N   0  0  0  0  0  0  0  0  0  0  0  0
    7.7474   -1.6740    0.0000 C   0  0  0  0  0  0  0  0  0  0  0  0
    8.4973   -0.3748    0.0000 C   0  0  0  0  0  0  0  0  0  0  0  0
    9.2474   -4.2720    0.0000 C   0  0  0  0  0  0  0  0  0  0  0  0
    8.4973   -5.5711    0.0000 C   0  0  0  0  0  0  0  0  0  0  0  0
    7.1982   -3.7230    0.0000 C   0  0  0  0  0  0  0  0  0  0  0  0
    5.8992   -2.9730    0.0000 C   0  0  0  0  0  0  0  0  0  0  0  0
    4.6003   -3.7230    0.0000 C   0  0  0  0  0  0  0  0  0  0  0  0
    5.3502   -5.0220    0.0000 O   0  0  0  0  0  0  0  0  0  0  0  0
    3.3011   -4.4730    0.0000 C   0  0  0  0  0  0  0  0  0  0  0  0
    2.0022   -3.7230    0.0000 C   0  0  0  0  0  0  0  0  0  0  0  0
    0.7031   -4.4730    0.0000 C   0  0  0  0  0  0  0  0  0  0  0  0
    0.7031   -5.9730    0.0000 C   0  0  0  0  0  0  0  0  0  0  0  0
    2.0022   -6.7230    0.0000 C   0  0  0  0  0  0  0  0  0  0  0  0
    3.3011   -5.9730    0.0000 C   0  0  0  0  0  0  0  0  0  0  0  0
    3.8502   -2.4240    0.0000 C   0  0  0  0  0  0  0  0  0  0  0  0
    4.6003   -1.1249    0.0000 C   0  0  0  0  0  0  0  0  0  0  0  0
    3.8502    0.1741    0.0000 C   0  0  0  0  0  0  0  0  0  0  0  0
    2.3502    0.1741    0.0000 C   0  0  0  0  0  0  0  0  0  0  0  0
    1.6002   -1.1249    0.0000 C   0  0  0  0  0  0  0  0  0  0  0  0
    2.3502   -2.4240    0.0000 C   0  0  0  0  0  0  0  0  0  0  0  0
  1  2  1  0  0  0  0
  2  3  1  0  0  0  0
  3  4  1  0  0  0  0
  3  6  1  0  0  0  0
  3  8  1  0  0  0  0
  4  5  1  0  0  0  0
  6  7  1  0  0  0  0
  8  9  1  0  0  0  0
  9 10  1  0  0  0  0
 10 11  1  0  0  0  0
 10 12  1  0  0  0  0
 10 18  1  0  0  0  0
 13 12  1  0  0  0  0
 12 17  1  0  0  0  0
 14 13  1  0  0  0  0
 15 14  1  0  0  0  0
 16 15  1  0  0  0  0
 17 16  1  0  0  0  0
 19 18  2  0  0  0  0
 18 23  1  0  0  0  0
 20 19  1  0  0  0  0
 21 20  2  0  0  0  0
 22 21  1  0  0  0  0
 23 22  2  0  0  0  0
M  CHG  1   3   1
M  END
> <Inchi_key>
NPRHVSBSZMAEIN-UHFFFAOYSA-N

> <Source>
Mulliner

> <ID>
HT2116

> <H_MFHB>
0

> <CAS>


> <Cholestasis>


> <Name>
tridihexethyl

> <Class>
0

$$$$