
  -INDIGO-08031710012D

 46 53  0  0  0  0  0  0  0  0999 V2000
   -0.9495    3.5436    0.0000 C   0  0  0  0  0  0  0  0  0  0  0  0
    0.3496    4.2937    0.0000 O   0  0  0  0  0  0  0  0  0  0  0  0
    1.6487    3.5436    0.0000 C   0  0  0  0  0  0  0  0  0  0  0  0
    2.9475    4.2937    0.0000 C   0  0  0  0  0  0  0  0  0  0  0  0
    4.2466    3.5436    0.0000 C   0  0  0  0  0  0  0  0  0  0  0  0
    4.2466    2.0435    0.0000 C   0  0  0  0  0  0  0  0  0  0  0  0
    2.9475    1.2936    0.0000 C   0  0  0  0  0  0  0  0  0  0  0  0
    2.9475   -0.2065    0.0000 O   0  0  0  0  0  0  0  0  0  0  0  0
    1.6487   -0.9564    0.0000 C   0  0  0  0  0  0  0  0  0  0  0  0
    1.6487    2.0435    0.0000 C   0  0  0  0  0  0  0  0  0  0  0  0
    0.3496    1.2936    0.0000 O   0  0  0  0  0  0  0  0  0  0  0  0
    5.5457    4.2937    0.0000 C   0  0  0  0  0  0  0  0  0  0  0  0
    6.8447    3.5436    0.0000 C   0  0  0  0  0  0  0  0  0  0  0  0
    8.1438    4.2937    0.0000 C   0  0  0  0  0  0  0  0  0  0  0  0
    9.2586    3.2898    0.0000 C   0  0  0  0  0  0  0  0  0  0  0  0
    8.6485    1.9194    0.0000 O   0  0  0  0  0  0  0  0  0  0  0  0
    7.1566    2.0763    0.0000 C   0  0  0  0  0  0  0  0  0  0  0  0
    6.1529    0.9616    0.0000 O   0  0  0  0  0  0  0  0  0  0  0  0
    8.1438    5.7935    0.0000 C   0  0  0  0  0  0  0  0  0  0  0  0
    9.4429    6.5437    0.0000 O   0  0  0  0  0  0  0  0  0  0  0  0
   10.7420    5.7935    0.0000 C   0  0  0  0  0  0  0  0  0  0  0  0
   10.7420    4.2937    0.0000 O   0  0  0  0  0  0  0  0  0  0  0  0
   12.0408    3.5436    0.0000 C   0  0  0  0  0  0  0  0  0  0  0  0
   12.0408    2.0435    0.0000 C   0  0  0  0  0  0  0  0  0  0  0  0
   13.3399    1.2936    0.0000 O   0  0  0  0  0  0  0  0  0  0  0  0
   14.6390    2.0435    0.0000 C   0  0  0  0  0  0  0  0  0  0  0  0
   14.6390    3.5436    0.0000 O   0  0  0  0  0  0  0  0  0  0  0  0
   13.3399    4.2937    0.0000 C   0  0  0  0  0  0  0  0  0  0  0  0
   13.3399    5.7935    0.0000 C   0  0  0  0  0  0  0  0  0  0  0  0
   14.6390    6.5437    0.0000 O   0  0  0  0  0  0  0  0  0  0  0  0
   12.0408    6.5437    0.0000 C   0  0  0  0  0  0  0  0  0  0  0  0
   12.0408    8.0435    0.0000 O   0  0  0  0  0  0  0  0  0  0  0  0
   15.9381    1.2936    0.0000 C   0  0  0  0  0  0  0  0  0  0  0  0
   17.3083    1.9036    0.0000 C   0  0  0  0  0  0  0  0  0  0  0  0
   18.3120    0.7889    0.0000 C   0  0  0  0  0  0  0  0  0  0  0  0
   17.5619   -0.5100    0.0000 C   0  0  0  0  0  0  0  0  0  0  0  0
   16.0947   -0.1981    0.0000 S   0  0  0  0  0  0  0  0  0  0  0  0
    6.8447    6.5437    0.0000 C   0  0  0  0  0  0  0  0  0  0  0  0
    6.8447    8.0435    0.0000 C   0  0  0  0  0  0  0  0  0  0  0  0
    5.5457    8.7936    0.0000 C   0  0  0  0  0  0  0  0  0  0  0  0
    5.2338   10.2609    0.0000 O   0  0  0  0  0  0  0  0  0  0  0  0
    3.7419   10.4176    0.0000 C   0  0  0  0  0  0  0  0  0  0  0  0
    3.1318    9.0472    0.0000 O   0  0  0  0  0  0  0  0  0  0  0  0
    4.2466    8.0435    0.0000 C   0  0  0  0  0  0  0  0  0  0  0  0
    4.2466    6.5437    0.0000 C   0  0  0  0  0  0  0  0  0  0  0  0
    5.5457    5.7935    0.0000 C   0  0  0  0  0  0  0  0  0  0  0  0
  1  2  1  0  0  0  0
  2  3  1  0  0  0  0
  4  3  2  0  0  0  0
  3 10  1  0  0  0  0
  5  4  1  0  0  0  0
  6  5  2  0  0  0  0
  5 12  1  0  0  0  0
  7  6  1  0  0  0  0
  7  8  1  0  0  0  0
 10  7  2  0  0  0  0
  8  9  1  0  0  0  0
 10 11  1  0  0  0  0
 13 12  1  0  0  0  0
 12 46  1  0  0  0  0
 13 14  1  0  0  0  0
 17 13  1  0  0  0  0
 14 15  1  0  0  0  0
 19 14  1  0  0  0  0
 15 16  1  0  0  0  0
 16 17  1  0  0  0  0
 17 18  2  0  0  0  0
 19 20  1  0  0  0  0
 38 19  1  0  0  0  0
 20 21  1  0  0  0  0
 22 21  1  0  0  0  0
 21 31  1  0  0  0  0
 23 22  1  0  0  0  0
 24 23  1  0  0  0  0
 23 28  1  0  0  0  0
 25 24  1  0  0  0  0
 26 25  1  0  0  0  0
 27 26  1  0  0  0  0
 26 33  1  0  0  0  0
 28 27  1  0  0  0  0
 29 28  1  0  0  0  0
 29 30  1  0  0  0  0
 31 29  1  0  0  0  0
 31 32  1  0  0  0  0
 34 33  2  0  0  0  0
 33 37  1  0  0  0  0
 35 34  1  0  0  0  0
 36 35  2  0  0  0  0
 37 36  1  0  0  0  0
 39 38  1  0  0  0  0
 38 46  2  0  0  0  0
 40 39  2  0  0  0  0
 41 40  1  0  0  0  0
 40 44  1  0  0  0  0
 42 41  1  0  0  0  0
 43 42  1  0  0  0  0
 44 43  1  0  0  0  0
 45 44  2  0  0  0  0
 46 45  1  0  0  0  0
M  END
> <Inchi_key>
NRUKOCRGYNPUPR-UHFFFAOYSA-N

> <Source>
Mulliner , Kotsampasakou

> <ID>
EK0508;HT2002

> <H_MFHB>
0

> <CAS>
29767-20-2

> <Cholestasis>
0

> <Name>
teniposide

> <Class>
0

$$$$