

  -INDIGO-08031710012D

 11 11  0  0  0  0  0  0  0  0999 V2000
   -0.4773   -0.8267    0.0000 C   0  0  0  0  0  0  0  0  0  0  0  0
    0.2728   -2.1257    0.0000 C   0  0  0  0  0  0  0  0  0  0  0  0
   -0.4773   -3.4247    0.0000 C   0  0  0  0  0  0  0  0  0  0  0  0
    1.7728   -2.1257    0.0000 C   0  0  0  0  0  0  0  0  0  0  0  0
    2.5227   -3.4247    0.0000 C   0  0  0  0  0  0  0  0  0  0  0  0
    4.0227   -3.4247    0.0000 C   0  0  0  0  0  0  0  0  0  0  0  0
    4.7728   -2.1257    0.0000 C   0  0  0  0  0  0  0  0  0  0  0  0
    4.0227   -0.8267    0.0000 C   0  0  0  0  0  0  0  0  0  0  0  0
    2.5227   -0.8267    0.0000 C   0  0  0  0  0  0  0  0  0  0  0  0
    6.2728   -2.1257    0.0000 C   0  0  0  0  0  0  0  0  0  0  0  0
    7.0227   -3.4247    0.0000 O   0  0  0  0  0  0  0  0  0  0  0  0
  1  2  1  0  0  0  0
  2  3  2  0  0  0  0
  2  4  1  0  0  0  0
  5  4  1  0  0  0  0
  4  9  1  0  0  0  0
  6  5  1  0  0  0  0
  7  6  1  0  0  0  0
  8  7  2  0  0  0  0
  7 10  1  0  0  0  0
  9  8  1  0  0  0  0
 10 11  1  0  0  0  0
M  END
> <Inchi_key>
NDTYTMIUWGWIMO-UHFFFAOYSA-N

> <Source>
Mulliner

> <ID>
HT2640

> <H_MFHB>
0

> <CAS>
536-59-4

> <Cholestasis>


> <Name>


> <Class>
0


$$$$