

  -INDIGO-08031710012D

 29 31  0  0  0  0  0  0  0  0999 V2000
   18.3371    8.1683    0.0000 C   0  0  0  0  0  0  0  0  0  0  0  0
   17.3339    7.0532    0.0000 C   0  0  0  0  0  0  0  0  0  0  0  0
   17.7978    5.6268    0.0000 C   0  0  0  0  0  0  0  0  0  0  0  0
   15.8663    7.3645    0.0000 C   0  0  0  0  0  0  0  0  0  0  0  0
   14.8632    6.2494    0.0000 C   0  0  0  0  0  0  0  0  0  0  0  0
   13.3958    6.5608    0.0000 C   0  0  0  0  0  0  0  0  0  0  0  0
   12.3926    5.4457    0.0000 C   0  0  0  0  0  0  0  0  0  0  0  0
   12.8566    4.0193    0.0000 C   0  0  0  0  0  0  0  0  0  0  0  0
   10.9253    5.7570    0.0000 C   0  0  0  0  0  0  0  0  0  0  0  0
   10.3147    7.1271    0.0000 C   0  0  0  0  0  0  0  0  0  0  0  0
    8.8229    6.9697    0.0000 C   0  0  0  0  0  0  0  0  0  0  0  0
    8.5117    5.5024    0.0000 C   0  0  0  0  0  0  0  0  0  0  0  0
    7.2129    4.7519    0.0000 C   0  0  0  0  0  0  0  0  0  0  0  0
    5.9136    5.5014    0.0000 C   0  0  0  0  0  0  0  0  0  0  0  0
    4.6148    4.7509    0.0000 C   0  0  0  0  0  0  0  0  0  0  0  0
    3.3155    5.5004    0.0000 C   0  0  0  0  0  0  0  0  0  0  0  0
    2.0167    4.7499    0.0000 C   0  0  0  0  0  0  0  0  0  0  0  0
    0.7174    5.4994    0.0000 C   0  0  0  0  0  0  0  0  0  0  0  0
   -0.5814    4.7490    0.0000 O   0  0  0  0  0  0  0  0  0  0  0  0
    0.7168    6.9994    0.0000 C   0  0  0  0  0  0  0  0  0  0  0  0
    2.0155    7.7499    0.0000 C   0  0  0  0  0  0  0  0  0  0  0  0
    2.0150    9.2499    0.0000 O   0  0  0  0  0  0  0  0  0  0  0  0
    3.3149    7.0004    0.0000 C   0  0  0  0  0  0  0  0  0  0  0  0
    4.6136    7.7509    0.0000 C   0  0  0  0  0  0  0  0  0  0  0  0
    7.2135    3.2520    0.0000 C   0  0  0  0  0  0  0  0  0  0  0  0
    8.5128    2.5024    0.0000 C   0  0  0  0  0  0  0  0  0  0  0  0
    9.8113    3.2529    0.0000 C   0  0  0  0  0  0  0  0  0  0  0  0
    9.8110    4.7529    0.0000 C   0  0  0  0  0  0  0  0  0  0  0  0
   11.1707    4.1195    0.0000 C   0  0  0  0  0  0  0  0  0  0  0  0
  1  2  1  0  0  0  0
  2  3  1  0  0  0  0
  2  4  1  0  0  0  0
  4  5  1  0  0  0  0
  5  6  1  0  0  0  0
  6  7  1  0  0  0  0
  7  8  1  0  0  0  0
  7  9  1  0  0  0  0
 10  9  1  0  0  0  0
  9 28  1  0  0  0  0
 11 10  1  0  0  0  0
 12 11  1  0  0  0  0
 13 12  1  0  0  0  0
 12 28  1  0  0  0  0
 13 14  2  0  0  0  0
 25 13  1  0  0  0  0
 14 15  1  0  0  0  0
 15 16  2  0  0  0  0
 17 16  1  0  0  0  0
 16 23  1  0  0  0  0
 18 17  1  0  0  0  0
 18 19  1  0  0  0  0
 20 18  1  0  0  0  0
 21 20  1  0  0  0  0
 21 22  1  0  0  0  0
 23 21  1  0  0  0  0
 23 24  2  0  0  0  0
 26 25  1  0  0  0  0
 27 26  1  0  0  0  0
 28 27  1  0  0  0  0
 28 29  1  0  0  0  0
M  END
> <Inchi_key>
OFHCOWSQAMBJIW-DWKIUPLPSA-N

> <Source>
Mulliner

> <ID>
HT0095

> <H_MFHB>
0

> <CAS>


> <Cholestasis>


> <Name>
alfacalcidol

> <Class>
0


$$$$