
  -INDIGO-08031710012D

  7  6  0  0  0  0  0  0  0  0999 V2000
    0.9510   -2.2633    0.0000 C   0  0  0  0  0  0  0  0  0  0  0  0
    0.2010   -0.9643    0.0000 N   0  0  0  0  0  0  0  0  0  0  0  0
   -0.5490    0.3348    0.0000 C   0  0  0  0  0  0  0  0  0  0  0  0
   -1.0981   -1.7143    0.0000 C   0  0  0  0  0  0  0  0  0  0  0  0
    1.5000   -0.2143    0.0000 C   0  0  0  0  0  0  0  0  0  0  0  0
    2.7990   -0.9643    0.0000 C   0  0  0  0  0  0  0  0  0  0  0  0
    4.0981   -0.2143    0.0000 O   0  0  0  0  0  0  0  0  0  0  0  0
  1  2  1  0  0  0  0
  2  3  1  0  0  0  0
  2  4  1  0  0  0  0
  2  5  1  0  0  0  0
  5  6  1  0  0  0  0
  6  7  1  0  0  0  0
M  CHG  1   2   1
M  END
> <Inchi_key>
OEYIOHPDSNJKLS-UHFFFAOYSA-N

> <Source>
Mulliner

> <ID>
HT0476

> <H_MFHB>
0

> <CAS>
67-48-1

> <Cholestasis>


> <Name>
choline

> <Class>
0

$$$$