

  -INDIGO-08031710012D

 27 29  0  0  0  0  0  0  0  0999 V2000
   16.7222   -0.0000    0.0000 C   0  0  0  0  0  0  0  0  0  0  0  0
   15.2223   -0.0000    0.0000 C   0  0  0  0  0  0  0  0  0  0  0  0
   14.4722    1.2990    0.0000 O   0  0  0  0  0  0  0  0  0  0  0  0
   12.9721    1.2990    0.0000 C   0  0  0  0  0  0  0  0  0  0  0  0
   12.2223   -0.0000    0.0000 C   0  0  0  0  0  0  0  0  0  0  0  0
   10.7221   -0.0000    0.0000 C   0  0  0  0  0  0  0  0  0  0  0  0
    9.9723    1.2990    0.0000 C   0  0  0  0  0  0  0  0  0  0  0  0
    8.4722    1.2990    0.0000 C   0  0  0  0  0  0  0  0  0  0  0  0
    7.7221   -0.0000    0.0000 C   0  0  0  0  0  0  0  0  0  0  0  0
    8.4722   -1.2991    0.0000 N   0  0  0  0  0  0  0  0  0  0  0  0
    7.7221   -2.5981    0.0000 C   0  0  0  0  0  0  0  0  0  0  0  0
    8.4722   -3.8971    0.0000 C   0  0  0  0  0  0  0  0  0  0  0  0
    6.2222   -2.5981    0.0000 C   0  0  0  0  0  0  0  0  0  0  0  0
    5.4721   -1.2991    0.0000 C   0  0  0  0  0  0  0  0  0  0  0  0
    3.9722   -1.2991    0.0000 C   0  0  0  0  0  0  0  0  0  0  0  0
    3.2222   -0.0000    0.0000 C   0  0  0  0  0  0  0  0  0  0  0  0
    1.7223   -0.0000    0.0000 O   0  0  0  0  0  0  0  0  0  0  0  0
    0.9722   -1.2991    0.0000 C   0  0  0  0  0  0  0  0  0  0  0  0
    3.9722    1.2990    0.0000 C   0  0  0  0  0  0  0  0  0  0  0  0
    3.2222    2.5982    0.0000 O   0  0  0  0  0  0  0  0  0  0  0  0
    3.9722    3.8970    0.0000 C   0  0  0  0  0  0  0  0  0  0  0  0
    5.4721    1.2990    0.0000 C   0  0  0  0  0  0  0  0  0  0  0  0
    6.2222   -0.0000    0.0000 C   0  0  0  0  0  0  0  0  0  0  0  0
   10.7221    2.5982    0.0000 C   0  0  0  0  0  0  0  0  0  0  0  0
   12.2223    2.5982    0.0000 C   0  0  0  0  0  0  0  0  0  0  0  0
   12.9721    3.8970    0.0000 O   0  0  0  0  0  0  0  0  0  0  0  0
   12.2223    5.1962    0.0000 C   0  0  0  0  0  0  0  0  0  0  0  0
  1  2  1  0  0  0  0
  2  3  1  0  0  0  0
  3  4  1  0  0  0  0
  5  4  2  0  0  0  0
  4 25  1  0  0  0  0
  6  5  1  0  0  0  0
  7  6  2  0  0  0  0
  7  8  1  0  0  0  0
 24  7  1  0  0  0  0
  8  9  1  0  0  0  0
 10  9  2  0  0  0  0
  9 23  1  0  0  0  0
 11 10  1  0  0  0  0
 11 12  1  0  0  0  0
 13 11  2  0  0  0  0
 14 13  1  0  0  0  0
 15 14  1  0  0  0  0
 14 23  2  0  0  0  0
 16 15  2  0  0  0  0
 16 17  1  0  0  0  0
 19 16  1  0  0  0  0
 17 18  1  0  0  0  0
 19 20  1  0  0  0  0
 22 19  2  0  0  0  0
 20 21  1  0  0  0  0
 23 22  1  0  0  0  0
 25 24  2  0  0  0  0
 25 26  1  0  0  0  0
 26 27  1  0  0  0  0
M  END
> <Inchi_key>
NFABMCCMPXXBFY-UHFFFAOYSA-N

> <Source>
Mulliner

> <ID>
HT3667

> <H_MFHB>
0

> <CAS>


> <Cholestasis>


> <Name>


> <Class>
0


$$$$