

  -INDIGO-08031710012D

 54 56  0  0  0  0  0  0  0  0999 V2000
    2.9482  -11.0032    0.0000 C   0  0  0  0  0  0  0  0  0  0  0  0
    4.2472  -10.2532    0.0000 S   0  0  0  0  0  0  0  0  0  0  0  0
    4.2472   -8.7533    0.0000 C   0  0  0  0  0  0  0  0  0  0  0  0
    2.9482   -8.0031    0.0000 C   0  0  0  0  0  0  0  0  0  0  0  0
    2.9482   -6.5032    0.0000 C   0  0  0  0  0  0  0  0  0  0  0  0
    1.6493   -5.7532    0.0000 N   0  0  0  0  0  0  0  0  0  0  0  0
    1.6493   -4.2533    0.0000 C   0  0  0  0  0  0  0  0  0  0  0  0
    2.9482   -3.5033    0.0000 O   0  0  0  0  0  0  0  0  0  0  0  0
    0.3503   -3.5033    0.0000 C   0  0  0  0  0  0  0  0  0  0  0  0
    0.3503   -2.0031    0.0000 C   0  0  0  0  0  0  0  0  0  0  0  0
   -0.9486   -1.2532    0.0000 C   0  0  0  0  0  0  0  0  0  0  0  0
   -2.3192   -1.8633    0.0000 C   0  0  0  0  0  0  0  0  0  0  0  0
   -3.3228   -0.7486    0.0000 N   0  0  0  0  0  0  0  0  0  0  0  0
   -2.5726    0.5505    0.0000 C   0  0  0  0  0  0  0  0  0  0  0  0
   -3.0362    1.9771    0.0000 C   0  0  0  0  0  0  0  0  0  0  0  0
   -2.0326    3.0918    0.0000 C   0  0  0  0  0  0  0  0  0  0  0  0
   -0.5656    2.7799    0.0000 C   0  0  0  0  0  0  0  0  0  0  0  0
   -0.1020    1.3533    0.0000 C   0  0  0  0  0  0  0  0  0  0  0  0
   -1.1057    0.2386    0.0000 C   0  0  0  0  0  0  0  0  0  0  0  0
   -0.9486   -4.2533    0.0000 N   0  0  0  0  0  0  0  0  0  0  0  0
   -0.9486   -5.7532    0.0000 C   0  0  0  0  0  0  0  0  0  0  0  0
    0.3503   -6.5032    0.0000 O   0  0  0  0  0  0  0  0  0  0  0  0
   -2.2480   -6.5032    0.0000 C   0  0  0  0  0  0  0  0  0  0  0  0
   -3.5469   -5.7532    0.0000 C   0  0  0  0  0  0  0  0  0  0  0  0
   -4.8459   -6.5032    0.0000 N   0  0  0  0  0  0  0  0  0  0  0  0
   -6.1449   -5.7532    0.0000 C   0  0  0  0  0  0  0  0  0  0  0  0
   -6.1449   -4.2533    0.0000 O   0  0  0  0  0  0  0  0  0  0  0  0
   -7.4442   -6.5032    0.0000 O   0  0  0  0  0  0  0  0  0  0  0  0
   -8.7431   -5.7532    0.0000 C   0  0  0  0  0  0  0  0  0  0  0  0
   -9.4930   -7.0523    0.0000 C   0  0  0  0  0  0  0  0  0  0  0  0
  -10.0421   -5.0032    0.0000 C   0  0  0  0  0  0  0  0  0  0  0  0
   -7.9929   -4.4541    0.0000 C   0  0  0  0  0  0  0  0  0  0  0  0
    4.2472   -5.7532    0.0000 C   0  0  0  0  0  0  0  0  0  0  0  0
    4.2472   -4.2533    0.0000 O   0  0  0  0  0  0  0  0  0  0  0  0
    5.5465   -6.5032    0.0000 N   0  0  0  0  0  0  0  0  0  0  0  0
    6.8455   -5.7532    0.0000 C   0  0  0  0  0  0  0  0  0  0  0  0
    6.8455   -4.2533    0.0000 C   0  0  0  0  0  0  0  0  0  0  0  0
    8.1444   -3.5033    0.0000 C   0  0  0  0  0  0  0  0  0  0  0  0
    9.4434   -4.2533    0.0000 O   0  0  0  0  0  0  0  0  0  0  0  0
    8.1444   -2.0031    0.0000 O   0  0  0  0  0  0  0  0  0  0  0  0
    8.1444   -6.5032    0.0000 C   0  0  0  0  0  0  0  0  0  0  0  0
    8.1444   -8.0031    0.0000 O   0  0  0  0  0  0  0  0  0  0  0  0
    9.4434   -5.7532    0.0000 N   0  0  0  0  0  0  0  0  0  0  0  0
   10.7424   -6.5032    0.0000 C   0  0  0  0  0  0  0  0  0  0  0  0
   10.7424   -8.0031    0.0000 C   0  0  0  0  0  0  0  0  0  0  0  0
   12.0417   -8.7533    0.0000 C   0  0  0  0  0  0  0  0  0  0  0  0
   13.3406   -8.0031    0.0000 C   0  0  0  0  0  0  0  0  0  0  0  0
   14.6396   -8.7533    0.0000 C   0  0  0  0  0  0  0  0  0  0  0  0
   14.6396  -10.2532    0.0000 C   0  0  0  0  0  0  0  0  0  0  0  0
   13.3406  -11.0032    0.0000 C   0  0  0  0  0  0  0  0  0  0  0  0
   12.0417  -10.2532    0.0000 C   0  0  0  0  0  0  0  0  0  0  0  0
   12.0417   -5.7532    0.0000 C   0  0  0  0  0  0  0  0  0  0  0  0
   13.3406   -6.5032    0.0000 O   0  0  0  0  0  0  0  0  0  0  0  0
   12.0417   -4.2533    0.0000 N   0  0  0  0  0  0  0  0  0  0  0  0
  1  2  1  0  0  0  0
  2  3  1  0  0  0  0
  3  4  1  0  0  0  0
  4  5  1  0  0  0  0
  5  6  1  0  0  0  0
  5 33  1  0  0  0  0
  6  7  1  0  0  0  0
  7  8  2  0  0  0  0
  7  9  1  0  0  0  0
  9 10  1  0  0  0  0
  9 20  1  0  0  0  0
 10 11  1  0  0  0  0
 12 11  2  0  0  0  0
 11 19  1  0  0  0  0
 13 12  1  0  0  0  0
 14 13  1  0  0  0  0
 15 14  1  0  0  0  0
 14 19  2  0  0  0  0
 16 15  2  0  0  0  0
 17 16  1  0  0  0  0
 18 17  2  0  0  0  0
 19 18  1  0  0  0  0
 20 21  1  0  0  0  0
 21 22  2  0  0  0  0
 21 23  1  0  0  0  0
 23 24  1  0  0  0  0
 24 25  1  0  0  0  0
 25 26  1  0  0  0  0
 26 27  2  0  0  0  0
 26 28  1  0  0  0  0
 28 29  1  0  0  0  0
 29 30  1  0  0  0  0
 29 31  1  0  0  0  0
 29 32  1  0  0  0  0
 33 34  2  0  0  0  0
 33 35  1  0  0  0  0
 35 36  1  0  0  0  0
 36 37  1  0  0  0  0
 36 41  1  0  0  0  0
 37 38  1  0  0  0  0
 38 39  2  0  0  0  0
 38 40  1  0  0  0  0
 41 42  2  0  0  0  0
 41 43  1  0  0  0  0
 43 44  1  0  0  0  0
 44 45  1  0  0  0  0
 44 52  1  0  0  0  0
 45 46  1  0  0  0  0
 47 46  2  0  0  0  0
 46 51  1  0  0  0  0
 48 47  1  0  0  0  0
 49 48  2  0  0  0  0
 50 49  1  0  0  0  0
 51 50  2  0  0  0  0
 52 53  2  0  0  0  0
 52 54  1  0  0  0  0
M  END
> <Inchi_key>
NEYNJQRKHLUJRU-UHFFFAOYSA-N

> <Source>
Mulliner

> <ID>
HT1617

> <H_MFHB>
0

> <CAS>


> <Cholestasis>


> <Name>
pentagastrin

> <Class>
0


$$$$