

  -INDIGO-08031710012D

 27 30  0  0  0  0  0  0  0  0999 V2000
    5.6192   -0.1609    0.0000 C   0  0  0  0  0  0  0  0  0  0  0  0
    4.7631    1.0708    0.0000 C   0  0  0  0  0  0  0  0  0  0  0  0
    4.0086   -0.2257    0.0000 C   0  0  0  0  0  0  0  0  0  0  0  0
    2.5087   -0.2206    0.0000 C   0  0  0  0  0  0  0  0  0  0  0  0
    1.7542   -1.5170    0.0000 O   0  0  0  0  0  0  0  0  0  0  0  0
    1.7632    1.0810    0.0000 C   0  0  0  0  0  0  0  0  0  0  0  0
    2.5174    2.3775    0.0000 C   0  0  0  0  0  0  0  0  0  0  0  0
    1.7720    3.6791    0.0000 C   0  0  0  0  0  0  0  0  0  0  0  0
    0.2720    3.6842    0.0000 C   0  0  0  0  0  0  0  0  0  0  0  0
   -0.4737    4.9858    0.0000 F   0  0  0  0  0  0  0  0  0  0  0  0
   -0.4825    2.3877    0.0000 C   0  0  0  0  0  0  0  0  0  0  0  0
   -1.9825    2.3929    0.0000 C   0  0  0  0  0  0  0  0  0  0  0  0
   -2.7369    1.0964    0.0000 C   0  0  0  0  0  0  0  0  0  0  0  0
   -4.2369    1.1015    0.0000 O   0  0  0  0  0  0  0  0  0  0  0  0
   -1.9912   -0.2052    0.0000 C   0  0  0  0  0  0  0  0  0  0  0  0
   -0.4913   -0.2103    0.0000 C   0  0  0  0  0  0  0  0  0  0  0  0
    0.2630    1.0862    0.0000 C   0  0  0  0  0  0  0  0  0  0  0  0
    1.0087   -0.2154    0.0000 C   0  0  0  0  0  0  0  0  0  0  0  0
    4.0174    2.3724    0.0000 C   0  0  0  0  0  0  0  0  0  0  0  0
    5.0251    3.4837    0.0000 C   0  0  0  0  0  0  0  0  0  0  0  0
    6.3932    2.8689    0.0000 C   0  0  0  0  0  0  0  0  0  0  0  0
    6.2315    1.3776    0.0000 C   0  0  0  0  0  0  0  0  0  0  0  0
    6.7148   -0.0423    0.0000 O   0  0  0  0  0  0  0  0  0  0  0  0
    7.7122    1.1379    0.0000 C   0  0  0  0  0  0  0  0  0  0  0  0
    8.2448   -0.2643    0.0000 O   0  0  0  0  0  0  0  0  0  0  0  0
    8.6599    2.3004    0.0000 C   0  0  0  0  0  0  0  0  0  0  0  0
   10.1408    2.0607    0.0000 O   0  0  0  0  0  0  0  0  0  0  0  0
  1  2  1  0  0  0  0
  3  2  1  0  0  0  0
 19  2  1  0  0  0  0
  2 22  1  0  0  0  0
  4  3  1  0  0  0  0
  4  5  1  0  0  0  0
  6  4  1  0  0  0  0
  6  7  1  0  0  0  0
 17  6  1  0  0  0  0
  7  8  1  0  0  0  0
 19  7  1  0  0  0  0
  8  9  1  0  0  0  0
  9 10  1  0  0  0  0
  9 11  1  0  0  0  0
 12 11  2  0  0  0  0
 11 17  1  0  0  0  0
 13 12  1  0  0  0  0
 13 14  2  0  0  0  0
 15 13  1  0  0  0  0
 16 15  2  0  0  0  0
 17 16  1  0  0  0  0
 17 18  1  0  0  0  0
 20 19  1  0  0  0  0
 21 20  1  0  0  0  0
 22 21  1  0  0  0  0
 22 23  1  0  0  0  0
 22 24  1  0  0  0  0
 24 25  2  0  0  0  0
 24 26  1  0  0  0  0
 26 27  1  0  0  0  0
M  END
> <Inchi_key>
MYYIMZRZXIQBGI-UHFFFAOYSA-N

> <Source>
Mulliner

> <ID>
HT0916

> <H_MFHB>
0

> <CAS>


> <Cholestasis>


> <Name>
fluprednisolone

> <Class>
0


$$$$