
  -INDIGO-08031710012D

 32 34  0  0  0  0  0  0  0  0999 V2000
   14.3560    3.8467    0.0000 N   0  0  0  0  0  0  0  0  0  0  0  0
   13.0568    3.0967    0.0000 C   0  0  0  0  0  0  0  0  0  0  0  0
   13.0568    1.5967    0.0000 C   0  0  0  0  0  0  0  0  0  0  0  0
   11.7578    0.8467    0.0000 O   0  0  0  0  0  0  0  0  0  0  0  0
   11.7578   -0.6533    0.0000 C   0  0  0  0  0  0  0  0  0  0  0  0
   10.4588   -1.4033    0.0000 O   0  0  0  0  0  0  0  0  0  0  0  0
    9.1599   -0.6533    0.0000 C   0  0  0  0  0  0  0  0  0  0  0  0
    9.1599    0.8467    0.0000 C   0  0  0  0  0  0  0  0  0  0  0  0
   10.4588    1.5967    0.0000 N   0  0  0  0  0  0  0  0  0  0  0  0
    7.8609    1.5967    0.0000 C   0  0  0  0  0  0  0  0  0  0  0  0
    6.5616    0.8467    0.0000 C   0  0  0  0  0  0  0  0  0  0  0  0
    5.2627    1.5967    0.0000 N   0  0  0  0  0  0  0  0  0  0  0  0
    6.5616   -0.6533    0.0000 C   0  0  0  0  0  0  0  0  0  0  0  0
    5.2627   -1.4033    0.0000 O   0  0  0  0  0  0  0  0  0  0  0  0
    3.9637   -0.6533    0.0000 C   0  0  0  0  0  0  0  0  0  0  0  0
    3.9637    0.8467    0.0000 O   0  0  0  0  0  0  0  0  0  0  0  0
    2.6647    1.5967    0.0000 C   0  0  0  0  0  0  0  0  0  0  0  0
    2.6647    3.0967    0.0000 C   0  0  0  0  0  0  0  0  0  0  0  0
    1.3655    3.8467    0.0000 O   0  0  0  0  0  0  0  0  0  0  0  0
    1.3655    0.8467    0.0000 C   0  0  0  0  0  0  0  0  0  0  0  0
    0.0665    1.5967    0.0000 O   0  0  0  0  0  0  0  0  0  0  0  0
    1.3655   -0.6533    0.0000 C   0  0  0  0  0  0  0  0  0  0  0  0
    0.0665   -1.4033    0.0000 N   0  0  0  0  0  0  0  0  0  0  0  0
    2.6647   -1.4033    0.0000 C   0  0  0  0  0  0  0  0  0  0  0  0
    2.6647   -2.9033    0.0000 O   0  0  0  0  0  0  0  0  0  0  0  0
    7.8609   -1.4033    0.0000 C   0  0  0  0  0  0  0  0  0  0  0  0
    7.8609   -2.9033    0.0000 O   0  0  0  0  0  0  0  0  0  0  0  0
   13.0568   -1.4033    0.0000 C   0  0  0  0  0  0  0  0  0  0  0  0
   13.0568   -2.9033    0.0000 N   0  0  0  0  0  0  0  0  0  0  0  0
   14.3560   -0.6533    0.0000 C   0  0  0  0  0  0  0  0  0  0  0  0
   14.3560    0.8467    0.0000 C   0  0  0  0  0  0  0  0  0  0  0  0
   15.6550    1.5967    0.0000 O   0  0  0  0  0  0  0  0  0  0  0  0
  1  2  1  0  0  0  0
  2  3  1  0  0  0  0
  4  3  1  0  0  0  0
  3 31  1  0  0  0  0
  5  4  1  0  0  0  0
  5  6  1  0  0  0  0
 28  5  1  0  0  0  0
  6  7  1  0  0  0  0
  8  7  1  0  0  0  0
  7 26  1  0  0  0  0
  8  9  1  0  0  0  0
 10  8  1  0  0  0  0
 11 10  1  0  0  0  0
 11 12  1  0  0  0  0
 13 11  1  0  0  0  0
 13 14  1  0  0  0  0
 26 13  1  0  0  0  0
 14 15  1  0  0  0  0
 16 15  1  0  0  0  0
 15 24  1  0  0  0  0
 17 16  1  0  0  0  0
 17 18  1  0  0  0  0
 20 17  1  0  0  0  0
 18 19  1  0  0  0  0
 20 21  1  0  0  0  0
 22 20  1  0  0  0  0
 22 23  1  0  0  0  0
 24 22  1  0  0  0  0
 24 25  1  0  0  0  0
 26 27  1  0  0  0  0
 28 29  1  0  0  0  0
 30 28  1  0  0  0  0
 31 30  1  0  0  0  0
 31 32  1  0  0  0  0
M  END
> <Inchi_key>
NLVFBUXFDBBNBW-UHFFFAOYSA-N

> <Source>
Mulliner , Kotsampasakou

> <ID>
EK0534;HT2073

> <H_MFHB>
0

> <CAS>


> <Cholestasis>
0

> <Name>
tobramycin

> <Class>
0

$$$$