
  -INDIGO-08031710012D

 11 11  0  0  0  0  0  0  0  0999 V2000
    8.1694   -3.0072    0.0000 C   0  0  0  0  0  0  0  0  0  0  0  0
    6.8704   -3.7572    0.0000 N   0  0  0  0  0  0  0  0  0  0  0  0
    5.5713   -3.0072    0.0000 C   0  0  0  0  0  0  0  0  0  0  0  0
    5.5713   -1.5072    0.0000 C   0  0  0  0  0  0  0  0  0  0  0  0
    4.2722   -3.7572    0.0000 C   0  0  0  0  0  0  0  0  0  0  0  0
    2.9733   -3.0072    0.0000 C   0  0  0  0  0  0  0  0  0  0  0  0
    1.6742   -3.7572    0.0000 C   0  0  0  0  0  0  0  0  0  0  0  0
    0.3752   -3.0072    0.0000 C   0  0  0  0  0  0  0  0  0  0  0  0
    0.3752   -1.5072    0.0000 C   0  0  0  0  0  0  0  0  0  0  0  0
    1.6742   -0.7572    0.0000 C   0  0  0  0  0  0  0  0  0  0  0  0
    2.9733   -1.5072    0.0000 C   0  0  0  0  0  0  0  0  0  0  0  0
  1  2  1  0  0  0  0
  2  3  1  0  0  0  0
  3  4  1  0  0  0  0
  3  5  1  0  0  0  0
  5  6  1  0  0  0  0
  7  6  2  0  0  0  0
  6 11  1  0  0  0  0
  8  7  1  0  0  0  0
  9  8  2  0  0  0  0
 10  9  1  0  0  0  0
 11 10  2  0  0  0  0
M  END
> <Inchi_key>
MYWUZJCMWCOHBA-UHFFFAOYSA-N

> <Source>
Mulliner

> <ID>
HT1332

> <H_MFHB>
0

> <CAS>


> <Cholestasis>


> <Name>
methamphetamine hydrochloride;methamphetamine

> <Class>
0

$$$$