
  -INDIGO-08031710012D

 28 31  0  0  0  0  0  0  0  0999 V2000
    9.3095    2.4782    0.0000 C   0  0  0  0  0  0  0  0  0  0  0  0
    8.0081    1.7325    0.0000 C   0  0  0  0  0  0  0  0  0  0  0  0
    6.6397    2.3470    0.0000 C   0  0  0  0  0  0  0  0  0  0  0  0
    5.6324    1.2356    0.0000 C   0  0  0  0  0  0  0  0  0  0  0  0
    4.1323    1.2405    0.0000 C   0  0  0  0  0  0  0  0  0  0  0  0
    3.3867    2.5420    0.0000 C   0  0  0  0  0  0  0  0  0  0  0  0
    1.8866    2.5469    0.0000 C   0  0  0  0  0  0  0  0  0  0  0  0
    1.1325    1.2503    0.0000 C   0  0  0  0  0  0  0  0  0  0  0  0
   -0.3676    1.2552    0.0000 C   0  0  0  0  0  0  0  0  0  0  0  0
   -1.1218   -0.0414    0.0000 C   0  0  0  0  0  0  0  0  0  0  0  0
   -2.6218   -0.0365    0.0000 O   0  0  0  0  0  0  0  0  0  0  0  0
   -0.3761   -1.3429    0.0000 C   0  0  0  0  0  0  0  0  0  0  0  0
    1.1239   -1.3478    0.0000 C   0  0  0  0  0  0  0  0  0  0  0  0
    1.8781   -0.0512    0.0000 C   0  0  0  0  0  0  0  0  0  0  0  0
    2.6240   -1.3527    0.0000 C   0  0  0  0  0  0  0  0  0  0  0  0
    3.3782   -0.0561    0.0000 C   0  0  0  0  0  0  0  0  0  0  0  0
    4.8782   -0.0610    0.0000 F   0  0  0  0  0  0  0  0  0  0  0  0
    4.1240   -1.3576    0.0000 C   0  0  0  0  0  0  0  0  0  0  0  0
    3.3696   -2.6542    0.0000 O   0  0  0  0  0  0  0  0  0  0  0  0
    5.6238   -1.3625    0.0000 C   0  0  0  0  0  0  0  0  0  0  0  0
    6.3782   -0.0659    0.0000 C   0  0  0  0  0  0  0  0  0  0  0  0
    7.2344   -1.2974    0.0000 C   0  0  0  0  0  0  0  0  0  0  0  0
    7.8465    0.2412    0.0000 C   0  0  0  0  0  0  0  0  0  0  0  0
    8.9577   -0.7661    0.0000 C   0  0  0  0  0  0  0  0  0  0  0  0
   10.3859   -0.3073    0.0000 C   0  0  0  0  0  0  0  0  0  0  0  0
   10.7026    1.1589    0.0000 O   0  0  0  0  0  0  0  0  0  0  0  0
   11.4973   -1.3146    0.0000 C   0  0  0  0  0  0  0  0  0  0  0  0
   12.9255   -0.8557    0.0000 O   0  0  0  0  0  0  0  0  0  0  0  0
  1  2  1  0  0  0  0
  3  2  1  0  0  0  0
  2 23  1  0  0  0  0
  4  3  1  0  0  0  0
  5  4  1  0  0  0  0
  4 21  1  0  0  0  0
  6  5  1  0  0  0  0
  5 16  1  0  0  0  0
  7  6  1  0  0  0  0
  8  7  1  0  0  0  0
  9  8  2  0  0  0  0
  8 14  1  0  0  0  0
 10  9  1  0  0  0  0
 10 11  2  0  0  0  0
 12 10  1  0  0  0  0
 13 12  2  0  0  0  0
 14 13  1  0  0  0  0
 14 15  1  0  0  0  0
 16 14  1  0  0  0  0
 16 17  1  0  0  0  0
 18 16  1  0  0  0  0
 18 19  1  0  0  0  0
 20 18  1  0  0  0  0
 21 20  1  0  0  0  0
 21 22  1  0  0  0  0
 23 21  1  0  0  0  0
 23 24  1  0  0  0  0
 24 25  1  0  0  0  0
 25 26  2  0  0  0  0
 25 27  1  0  0  0  0
 27 28  1  0  0  0  0
M  END
> <Inchi_key>
MWTNODFASLUISS-UHFFFAOYSA-N

> <Source>
Mulliner

> <ID>
HT3737

> <H_MFHB>
0

> <CAS>


> <Cholestasis>


> <Name>


> <Class>
0

$$$$