
  -INDIGO-08031710012D

 30 32  0  0  0  0  0  0  0  0999 V2000
  -10.2992   -5.8910    0.0000 C   0  0  0  0  0  0  0  0  0  0  0  0
  -11.0597   -7.1840    0.0000 C   0  0  0  0  0  0  0  0  0  0  0  0
  -11.8202   -8.4769    0.0000 C   0  0  0  0  0  0  0  0  0  0  0  0
  -12.3526   -6.4235    0.0000 C   0  0  0  0  0  0  0  0  0  0  0  0
   -9.7668   -7.9444    0.0000 C   0  0  0  0  0  0  0  0  0  0  0  0
   -9.7788   -9.4444    0.0000 O   0  0  0  0  0  0  0  0  0  0  0  0
   -8.4616   -7.2049    0.0000 O   0  0  0  0  0  0  0  0  0  0  0  0
   -7.1687   -7.9654    0.0000 C   0  0  0  0  0  0  0  0  0  0  0  0
   -5.8637   -7.2259    0.0000 O   0  0  0  0  0  0  0  0  0  0  0  0
   -4.5708   -7.9863    0.0000 C   0  0  0  0  0  0  0  0  0  0  0  0
   -4.5829   -9.4863    0.0000 O   0  0  0  0  0  0  0  0  0  0  0  0
   -3.2656   -7.2468    0.0000 C   0  0  0  0  0  0  0  0  0  0  0  0
   -1.9003   -7.8679    0.0000 N   0  0  0  0  0  0  0  0  0  0  0  0
   -0.8877   -6.7613    0.0000 C   0  0  0  0  0  0  0  0  0  0  0  0
   -1.6272   -5.4563    0.0000 S   0  0  0  0  0  0  0  0  0  0  0  0
   -3.0968   -5.7563    0.0000 C   0  0  0  0  0  0  0  0  0  0  0  0
   -3.5114   -4.3147    0.0000 C   0  0  0  0  0  0  0  0  0  0  0  0
   -4.5696   -5.4711    0.0000 C   0  0  0  0  0  0  0  0  0  0  0  0
    0.2189   -7.7740    0.0000 C   0  0  0  0  0  0  0  0  0  0  0  0
    1.7176   -7.7076    0.0000 N   0  0  0  0  0  0  0  0  0  0  0  0
    2.5243   -8.9721    0.0000 C   0  0  0  0  0  0  0  0  0  0  0  0
    4.0228   -8.9057    0.0000 N   0  0  0  0  0  0  0  0  0  0  0  0
    4.6129   -7.5266    0.0000 C   0  0  0  0  0  0  0  0  0  0  0  0
    6.0593   -7.1298    0.0000 C   0  0  0  0  0  0  0  0  0  0  0  0
    7.2720   -8.0128    0.0000 C   0  0  0  0  0  0  0  0  0  0  0  0
    7.3384   -9.5113    0.0000 C   0  0  0  0  0  0  0  0  0  0  0  0
    6.2080  -10.4970    0.0000 C   0  0  0  0  0  0  0  0  0  0  0  0
    4.7325  -10.2272    0.0000 C   0  0  0  0  0  0  0  0  0  0  0  0
   -0.7937   -8.8806    0.0000 C   0  0  0  0  0  0  0  0  0  0  0  0
   -0.7273  -10.3791    0.0000 O   0  0  0  0  0  0  0  0  0  0  0  0
  1  2  1  0  0  0  0
  2  3  1  0  0  0  0
  2  4  1  0  0  0  0
  2  5  1  0  0  0  0
  5  6  2  0  0  0  0
  5  7  1  0  0  0  0
  7  8  1  0  0  0  0
  8  9  1  0  0  0  0
  9 10  1  0  0  0  0
 10 11  2  0  0  0  0
 10 12  1  0  0  0  0
 13 12  1  0  0  0  0
 12 16  1  0  0  0  0
 13 14  1  0  0  0  0
 29 13  1  0  0  0  0
 15 14  1  0  0  0  0
 14 19  1  0  0  0  0
 16 15  1  0  0  0  0
 16 17  1  0  0  0  0
 16 18  1  0  0  0  0
 19 20  1  0  0  0  0
 19 29  1  0  0  0  0
 20 21  2  0  0  0  0
 21 22  1  0  0  0  0
 23 22  1  0  0  0  0
 22 28  1  0  0  0  0
 24 23  1  0  0  0  0
 25 24  1  0  0  0  0
 26 25  1  0  0  0  0
 27 26  1  0  0  0  0
 28 27  1  0  0  0  0
 29 30  2  0  0  0  0
M  END
> <Inchi_key>
NPGNOVNWUSPMDP-WSDLNYQXSA-N

> <Source>
Mulliner

> <ID>
HT1700

> <H_MFHB>
0

> <CAS>


> <Cholestasis>


> <Name>
pivmecillinam

> <Class>
0

$$$$