

  -INDIGO-08031710012D

 40 45  0  0  0  0  0  0  0  0999 V2000
   -7.3053    4.2223    0.0000 C   0  0  0  0  0  0  0  0  0  0  0  0
   -8.0539    5.5219    0.0000 C   0  0  0  0  0  0  0  0  0  0  0  0
   -9.5540    5.5233    0.0000 O   0  0  0  0  0  0  0  0  0  0  0  0
   -7.3027    6.8204    0.0000 O   0  0  0  0  0  0  0  0  0  0  0  0
   -5.8028    6.8188    0.0000 C   0  0  0  0  0  0  0  0  0  0  0  0
   -5.0540    5.5192    0.0000 C   0  0  0  0  0  0  0  0  0  0  0  0
   -3.5541    5.5178    0.0000 C   0  0  0  0  0  0  0  0  0  0  0  0
   -2.8052    4.2180    0.0000 C   0  0  0  0  0  0  0  0  0  0  0  0
   -1.3051    4.2166    0.0000 C   0  0  0  0  0  0  0  0  0  0  0  0
   -0.5539    5.5150    0.0000 C   0  0  0  0  0  0  0  0  0  0  0  0
   -1.3028    6.8147    0.0000 C   0  0  0  0  0  0  0  0  0  0  0  0
   -0.5516    8.1130    0.0000 C   0  0  0  0  0  0  0  0  0  0  0  0
    0.9483    8.1117    0.0000 C   0  0  0  0  0  0  0  0  0  0  0  0
    1.6972    6.8119    0.0000 C   0  0  0  0  0  0  0  0  0  0  0  0
    2.6218    7.9931    0.0000 C   0  0  0  0  0  0  0  0  0  0  0  0
    0.9459    5.5136    0.0000 C   0  0  0  0  0  0  0  0  0  0  0  0
    1.9487    4.3979    0.0000 C   0  0  0  0  0  0  0  0  0  0  0  0
    3.3196    5.0068    0.0000 C   0  0  0  0  0  0  0  0  0  0  0  0
    3.1640    6.4987    0.0000 C   0  0  0  0  0  0  0  0  0  0  0  0
    4.2797    7.5014    0.0000 O   0  0  0  0  0  0  0  0  0  0  0  0
    3.9692    8.9689    0.0000 C   0  0  0  0  0  0  0  0  0  0  0  0
    5.0849    9.9716    0.0000 O   0  0  0  0  0  0  0  0  0  0  0  0
    2.5430    9.4337    0.0000 C   0  0  0  0  0  0  0  0  0  0  0  0
    4.6180    4.2556    0.0000 N   0  0  0  0  0  0  0  0  0  0  0  0
    3.3180    3.5068    0.0000 C   0  0  0  0  0  0  0  0  0  0  0  0
    5.3692    5.5539    0.0000 C   0  0  0  0  0  0  0  0  0  0  0  0
    6.8690    5.5525    0.0000 C   0  0  0  0  0  0  0  0  0  0  0  0
    7.6179    4.2528    0.0000 C   0  0  0  0  0  0  0  0  0  0  0  0
    6.8667    2.9544    0.0000 C   0  0  0  0  0  0  0  0  0  0  0  0
    5.3668    2.9558    0.0000 C   0  0  0  0  0  0  0  0  0  0  0  0
   -2.8029    6.8161    0.0000 C   0  0  0  0  0  0  0  0  0  0  0  0
   -4.3019    6.7650    0.0000 C   0  0  0  0  0  0  0  0  0  0  0  0
   -3.5515    8.1157    0.0000 C   0  0  0  0  0  0  0  0  0  0  0  0
   -5.0516    8.1173    0.0000 C   0  0  0  0  0  0  0  0  0  0  0  0
   -5.8005    9.4171    0.0000 N   0  0  0  0  0  0  0  0  0  0  0  0
   -7.3003    9.4183    0.0000 C   0  0  0  0  0  0  0  0  0  0  0  0
   -8.0492   10.7181    0.0000 C   0  0  0  0  0  0  0  0  0  0  0  0
   -7.2980   12.0164    0.0000 C   0  0  0  0  0  0  0  0  0  0  0  0
   -5.7981   12.0150    0.0000 C   0  0  0  0  0  0  0  0  0  0  0  0
   -5.0492   10.7153    0.0000 C   0  0  0  0  0  0  0  0  0  0  0  0
  1  2  1  0  0  0  0
  2  3  2  0  0  0  0
  2  4  1  0  0  0  0
  4  5  1  0  0  0  0
  6  5  1  0  0  0  0
  5 34  1  0  0  0  0
  7  6  1  0  0  0  0
  8  7  1  0  0  0  0
  7 31  1  0  0  0  0
  9  8  1  0  0  0  0
 10  9  1  0  0  0  0
 10 11  1  0  0  0  0
 16 10  1  0  0  0  0
 11 12  1  0  0  0  0
 31 11  1  0  0  0  0
 12 13  1  0  0  0  0
 13 14  1  0  0  0  0
 14 15  1  0  0  0  0
 16 14  1  0  0  0  0
 14 19  1  0  0  0  0
 17 16  1  0  0  0  0
 18 17  1  0  0  0  0
 19 18  1  0  0  0  0
 18 24  1  0  0  0  0
 19 20  1  0  0  0  0
 20 21  1  0  0  0  0
 21 22  2  0  0  0  0
 21 23  1  0  0  0  0
 24 25  1  0  0  0  0
 26 24  1  0  0  0  0
 24 30  1  0  0  0  0
 27 26  1  0  0  0  0
 28 27  1  0  0  0  0
 29 28  1  0  0  0  0
 30 29  1  0  0  0  0
 31 32  1  0  0  0  0
 33 31  1  0  0  0  0
 34 33  1  0  0  0  0
 34 35  1  0  0  0  0
 36 35  1  0  0  0  0
 35 40  1  0  0  0  0
 37 36  1  0  0  0  0
 38 37  1  0  0  0  0
 39 38  1  0  0  0  0
 40 39  1  0  0  0  0
M  CHG  1  24   1
M  END
> <Inchi_key>
BGSZAXLLHYERSY-UHFFFAOYSA-N

> <Source>
Mulliner

> <ID>
HT2170

> <H_MFHB>
0

> <CAS>
50700-72-6

> <Cholestasis>


> <Name>
vecuronium bromide;vecuronium

> <Class>
0


$$$$