

  -INDIGO-08031710012D

 47 50  0  0  0  0  0  0  0  0999 V2000
   -8.7562    1.8046    0.0000 C   0  0  0  0  0  0  0  0  0  0  0  0
  -10.0308    2.5954    0.0000 C   0  0  0  0  0  0  0  0  0  0  0  0
   -9.9952    4.0974    0.0000 C   0  0  0  0  0  0  0  0  0  0  0  0
   -8.7108    4.8522    0.0000 C   0  0  0  0  0  0  0  0  0  0  0  0
   -7.3908    4.1514    0.0000 C   0  0  0  0  0  0  0  0  0  0  0  0
   -6.1091    4.9474    0.0000 C   0  0  0  0  0  0  0  0  0  0  0  0
   -4.8040    4.2249    0.0000 C   0  0  0  0  0  0  0  0  0  0  0  0
   -3.4874    4.9558    0.0000 C   0  0  0  0  0  0  0  0  0  0  0  0
   -2.2454    4.0446    0.0000 C   0  0  0  0  0  0  0  0  0  0  0  0
   -2.5435    2.5753    0.0000 C   0  0  0  0  0  0  0  0  0  0  0  0
   -1.4785    1.5263    0.0000 C   0  0  0  0  0  0  0  0  0  0  0  0
   -1.9717    0.0745    0.0000 C   0  0  0  0  0  0  0  0  0  0  0  0
   -3.4640   -0.1017    0.0000 C   0  0  0  0  0  0  0  0  0  0  0  0
   -4.1018   -1.4519    0.0000 C   0  0  0  0  0  0  0  0  0  0  0  0
   -5.6024   -1.5289    0.0000 O   0  0  0  0  0  0  0  0  0  0  0  0
   -6.2859   -2.8664    0.0000 C   0  0  0  0  0  0  0  0  0  0  0  0
   -6.9916   -4.1901    0.0000 O   0  0  0  0  0  0  0  0  0  0  0  0
   -7.7906   -2.8989    0.0000 C   0  0  0  0  0  0  0  0  0  0  0  0
   -8.5429   -4.1885    0.0000 C   0  0  0  0  0  0  0  0  0  0  0  0
   -7.8025   -5.4928    0.0000 O   0  0  0  0  0  0  0  0  0  0  0  0
  -10.0465   -4.1736    0.0000 C   0  0  0  0  0  0  0  0  0  0  0  0
  -10.7788   -2.8546    0.0000 C   0  0  0  0  0  0  0  0  0  0  0  0
  -11.5584   -4.1491    0.0000 O   0  0  0  0  0  0  0  0  0  0  0  0
  -12.2673   -2.8192    0.0000 C   0  0  0  0  0  0  0  0  0  0  0  0
  -13.1284   -1.6483    0.0000 C   0  0  0  0  0  0  0  0  0  0  0  0
  -12.8185   -0.2337    0.0000 C   0  0  0  0  0  0  0  0  0  0  0  0
  -11.4621    0.3942    0.0000 C   0  0  0  0  0  0  0  0  0  0  0  0
  -10.2268   -0.4569    0.0000 O   0  0  0  0  0  0  0  0  0  0  0  0
  -11.3579    1.8977    0.0000 O   0  0  0  0  0  0  0  0  0  0  0  0
   -5.4675   -4.1247    0.0000 C   0  0  0  0  0  0  0  0  0  0  0  0
   -3.9685   -4.0478    0.0000 C   0  0  0  0  0  0  0  0  0  0  0  0
   -3.1530   -5.3067    0.0000 O   0  0  0  0  0  0  0  0  0  0  0  0
   -3.2858   -2.7113    0.0000 C   0  0  0  0  0  0  0  0  0  0  0  0
   -1.8519   -3.1515    0.0000 C   0  0  0  0  0  0  0  0  0  0  0  0
   -0.7538   -2.1297    0.0000 O   0  0  0  0  0  0  0  0  0  0  0  0
   -1.5161   -4.6134    0.0000 O   0  0  0  0  0  0  0  0  0  0  0  0
   -0.6863   -0.6983    0.0000 O   0  0  0  0  0  0  0  0  0  0  0  0
    0.6259    0.0288    0.0000 C   0  0  0  0  0  0  0  0  0  0  0  0
    0.6524    1.5286    0.0000 O   0  0  0  0  0  0  0  0  0  0  0  0
    1.9646    2.2554    0.0000 C   0  0  0  0  0  0  0  0  0  0  0  0
    1.9910    3.7553    0.0000 C   0  0  0  0  0  0  0  0  0  0  0  0
    3.2500    1.4827    0.0000 C   0  0  0  0  0  0  0  0  0  0  0  0
    4.5622    2.2095    0.0000 O   0  0  0  0  0  0  0  0  0  0  0  0
    3.2236   -0.0171    0.0000 C   0  0  0  0  0  0  0  0  0  0  0  0
    4.5093   -0.7899    0.0000 N   0  0  0  0  0  0  0  0  0  0  0  0
    1.9114   -0.7442    0.0000 C   0  0  0  0  0  0  0  0  0  0  0  0
    1.8849   -2.2438    0.0000 O   0  0  0  0  0  0  0  0  0  0  0  0
  1  2  1  0  0  0  0
  3  2  1  0  0  0  0
  2 29  1  0  0  0  0
  4  3  1  0  0  0  0
  5  4  2  0  0  0  0
  6  5  1  0  0  0  0
  7  6  2  0  0  0  0
  8  7  1  0  0  0  0
  9  8  2  0  0  0  0
 10  9  1  0  0  0  0
 11 10  2  0  0  0  0
 12 11  1  0  0  0  0
 13 12  1  0  0  0  0
 12 37  1  0  0  0  0
 14 13  1  0  0  0  0
 14 15  1  0  0  0  0
 33 14  1  0  0  0  0
 15 16  1  0  0  0  0
 16 17  1  0  0  0  0
 18 16  1  0  0  0  0
 16 30  1  0  0  0  0
 19 18  1  0  0  0  0
 19 20  1  0  0  0  0
 21 19  1  0  0  0  0
 22 21  1  0  0  0  0
 23 22  1  0  0  0  0
 22 24  1  0  0  0  0
 24 23  1  0  0  0  0
 25 24  1  0  0  0  0
 26 25  2  0  0  0  0
 27 26  1  0  0  0  0
 27 28  2  0  0  0  0
 29 27  1  0  0  0  0
 30 31  1  0  0  0  0
 31 32  1  0  0  0  0
 31 33  1  0  0  0  0
 33 34  1  0  0  0  0
 34 35  2  0  0  0  0
 34 36  1  0  0  0  0
 37 38  1  0  0  0  0
 39 38  1  0  0  0  0
 38 46  1  0  0  0  0
 40 39  1  0  0  0  0
 40 41  1  0  0  0  0
 42 40  1  0  0  0  0
 42 43  1  0  0  0  0
 44 42  1  0  0  0  0
 44 45  1  0  0  0  0
 46 44  1  0  0  0  0
 46 47  1  0  0  0  0
M  END
> <Inchi_key>
NCXMLFZGDNKEPB-BBJTUBESSA-N

> <Source>
Mulliner

> <ID>
HT1466

> <H_MFHB>
0

> <CAS>


> <Cholestasis>


> <Name>
natamycin

> <Class>
0


$$$$