

  -INDIGO-08031710012D

 22 24  0  0  0  0  0  0  0  0999 V2000
   14.0689   -4.1028    0.0000 C   0  0  0  0  0  0  0  0  0  0  0  0
   12.8039   -3.2965    0.0000 C   0  0  0  0  0  0  0  0  0  0  0  0
   11.4733   -3.9888    0.0000 O   0  0  0  0  0  0  0  0  0  0  0  0
   10.2086   -3.1825    0.0000 C   0  0  0  0  0  0  0  0  0  0  0  0
   10.2742   -1.6839    0.0000 O   0  0  0  0  0  0  0  0  0  0  0  0
    8.8778   -3.8747    0.0000 C   0  0  0  0  0  0  0  0  0  0  0  0
    8.6556   -5.3582    0.0000 N   0  0  0  0  0  0  0  0  0  0  0  0
    7.1760   -5.6054    0.0000 C   0  0  0  0  0  0  0  0  0  0  0  0
    6.4839   -4.2746    0.0000 N   0  0  0  0  0  0  0  0  0  0  0  0
    7.5356   -3.2051    0.0000 C   0  0  0  0  0  0  0  0  0  0  0  0
    7.3558   -1.7159    0.0000 C   0  0  0  0  0  0  0  0  0  0  0  0
    6.0797   -0.9273    0.0000 N   0  0  0  0  0  0  0  0  0  0  0  0
    6.2368    0.5644    0.0000 C   0  0  0  0  0  0  0  0  0  0  0  0
    4.6675   -1.4326    0.0000 C   0  0  0  0  0  0  0  0  0  0  0  0
    3.5986   -0.3800    0.0000 O   0  0  0  0  0  0  0  0  0  0  0  0
    4.1837   -2.8524    0.0000 C   0  0  0  0  0  0  0  0  0  0  0  0
    2.6851   -2.9200    0.0000 C   0  0  0  0  0  0  0  0  0  0  0  0
    1.9953   -4.2527    0.0000 C   0  0  0  0  0  0  0  0  0  0  0  0
    0.4967   -4.3203    0.0000 F   0  0  0  0  0  0  0  0  0  0  0  0
    2.8029   -5.5166    0.0000 C   0  0  0  0  0  0  0  0  0  0  0  0
    4.3015   -5.4490    0.0000 C   0  0  0  0  0  0  0  0  0  0  0  0
    4.9922   -4.1174    0.0000 C   0  0  0  0  0  0  0  0  0  0  0  0
  1  2  1  0  0  0  0
  2  3  1  0  0  0  0
  3  4  1  0  0  0  0
  4  5  2  0  0  0  0
  4  6  1  0  0  0  0
  7  6  1  0  0  0  0
  6 10  2  0  0  0  0
  8  7  2  0  0  0  0
  9  8  1  0  0  0  0
  9 10  1  0  0  0  0
 22  9  1  0  0  0  0
 10 11  1  0  0  0  0
 11 12  1  0  0  0  0
 12 13  1  0  0  0  0
 12 14  1  0  0  0  0
 14 15  2  0  0  0  0
 14 16  1  0  0  0  0
 17 16  1  0  0  0  0
 16 22  2  0  0  0  0
 18 17  2  0  0  0  0
 18 19  1  0  0  0  0
 20 18  1  0  0  0  0
 21 20  2  0  0  0  0
 22 21  1  0  0  0  0
M  END
> <Inchi_key>
OFBIFZUFASYYRE-UHFFFAOYSA-N

> <Source>
Mulliner , Kotsampasakou

> <ID>
EK0221;HT0897

> <H_MFHB>
0

> <CAS>


> <Cholestasis>
0

> <Name>
flumazenil

> <Class>
0


$$$$