

  -INDIGO-08031710012D

 11 11  0  0  0  0  0  0  0  0999 V2000
   -0.5455   -0.9448    0.0000 C   0  0  0  0  0  0  0  0  0  0  0  0
    0.2045   -2.2438    0.0000 C   0  0  0  0  0  0  0  0  0  0  0  0
   -0.5455   -3.5428    0.0000 C   0  0  0  0  0  0  0  0  0  0  0  0
    1.7045   -2.2438    0.0000 C   0  0  0  0  0  0  0  0  0  0  0  0
    2.4545   -3.5428    0.0000 C   0  0  0  0  0  0  0  0  0  0  0  0
    3.9545   -3.5428    0.0000 C   0  0  0  0  0  0  0  0  0  0  0  0
    4.7045   -2.2438    0.0000 C   0  0  0  0  0  0  0  0  0  0  0  0
    6.2045   -2.2438    0.0000 C   0  0  0  0  0  0  0  0  0  0  0  0
    3.9545   -0.9448    0.0000 C   0  0  0  0  0  0  0  0  0  0  0  0
    2.4545   -0.9448    0.0000 C   0  0  0  0  0  0  0  0  0  0  0  0
    1.7045    0.3543    0.0000 O   0  0  0  0  0  0  0  0  0  0  0  0
  1  2  1  0  0  0  0
  2  3  1  0  0  0  0
  2  4  1  0  0  0  0
  5  4  1  0  0  0  0
  4 10  1  0  0  0  0
  6  5  1  0  0  0  0
  7  6  1  0  0  0  0
  7  8  1  0  0  0  0
  9  7  1  0  0  0  0
 10  9  1  0  0  0  0
 10 11  1  0  0  0  0
M  END
> <Inchi_key>
NOOLISFMXDJSKH-UHFFFAOYSA-N

> <Source>
Mulliner

> <ID>
HT1300

> <H_MFHB>
0

> <CAS>
89-78-1;15356-70-4

> <Cholestasis>


> <Name>
menthol

> <Class>
0


$$$$