

  -INDIGO-08031710012D

 24 26  0  0  0  0  0  0  0  0999 V2000
   -3.3236   -4.6244    0.0000 C   0  0  0  0  0  0  0  0  0  0  0  0
   -2.8454   -6.0462    0.0000 C   0  0  0  0  0  0  0  0  0  0  0  0
   -3.8376   -7.1712    0.0000 C   0  0  0  0  0  0  0  0  0  0  0  0
   -1.3751   -6.3429    0.0000 N   0  0  0  0  0  0  0  0  0  0  0  0
   -1.9554   -7.7261    0.0000 C   0  0  0  0  0  0  0  0  0  0  0  0
   -0.0738   -6.1528    0.0000 C   0  0  0  0  0  0  0  0  0  0  0  0
    0.0610   -4.7203    0.0000 C   0  0  0  0  0  0  0  0  0  0  0  0
   -0.5840   -3.5526    0.0000 C   0  0  0  0  0  0  0  0  0  0  0  0
   -0.4114   -5.1691    0.0000 C   0  0  0  0  0  0  0  0  0  0  0  0
    1.1438   -6.0627    0.0000 C   0  0  0  0  0  0  0  0  0  0  0  0
    2.3665   -5.8512    0.0000 C   0  0  0  0  0  0  0  0  0  0  0  0
    1.3927   -7.0265    0.0000 C   0  0  0  0  0  0  0  0  0  0  0  0
    3.6639   -5.0986    0.0000 O   0  0  0  0  0  0  0  0  0  0  0  0
    4.9644   -5.8460    0.0000 C   0  0  0  0  0  0  0  0  0  0  0  0
    4.9674   -7.3460    0.0000 O   0  0  0  0  0  0  0  0  0  0  0  0
    6.2621   -5.0934    0.0000 C   0  0  0  0  0  0  0  0  0  0  0  0
    6.2591   -3.5934    0.0000 C   0  0  0  0  0  0  0  0  0  0  0  0
    7.5566   -2.8408    0.0000 O   0  0  0  0  0  0  0  0  0  0  0  0
    7.5626   -5.8408    0.0000 C   0  0  0  0  0  0  0  0  0  0  0  0
    7.5655   -7.3408    0.0000 C   0  0  0  0  0  0  0  0  0  0  0  0
    8.8660   -8.0882    0.0000 C   0  0  0  0  0  0  0  0  0  0  0  0
   10.1637   -7.3356    0.0000 C   0  0  0  0  0  0  0  0  0  0  0  0
   10.1607   -5.8356    0.0000 C   0  0  0  0  0  0  0  0  0  0  0  0
    8.8600   -5.0882    0.0000 C   0  0  0  0  0  0  0  0  0  0  0  0
  1  2  1  0  0  0  0
  2  3  1  0  0  0  0
  2  4  1  0  0  0  0
  4  5  1  0  0  0  0
  6  4  1  0  0  0  0
  4  9  1  0  0  0  0
  6  7  1  0  0  0  0
 12  6  1  0  0  0  0
  7  8  1  0  0  0  0
  8  9  1  0  0  0  0
  9 10  1  0  0  0  0
 10 11  1  0  0  0  0
 11 12  1  0  0  0  0
 11 13  1  0  0  0  0
 13 14  1  0  0  0  0
 14 15  2  0  0  0  0
 14 16  1  0  0  0  0
 16 17  1  0  0  0  0
 16 19  1  0  0  0  0
 17 18  1  0  0  0  0
 20 19  2  0  0  0  0
 19 24  1  0  0  0  0
 21 20  1  0  0  0  0
 22 21  2  0  0  0  0
 23 22  1  0  0  0  0
 24 23  2  0  0  0  0
M  CHG  1   4   1
M  END
> <Inchi_key>
OEXHQOGQTVQTAT-UHFFFAOYSA-N

> <Source>
Mulliner

> <ID>
HT1120

> <H_MFHB>
0

> <CAS>
22254-24-6

> <Cholestasis>


> <Name>
ipratropium bromide

> <Class>
0


$$$$