

  -INDIGO-08031710012D

 16 17  0  0  0  0  0  0  0  0999 V2000
    5.1475    2.9719    0.0000 C   0  0  0  0  0  0  0  0  0  0  0  0
    4.3976    1.6729    0.0000 C   0  0  0  0  0  0  0  0  0  0  0  0
    5.1475    0.3739    0.0000 N   0  0  0  0  0  0  0  0  0  0  0  0
    4.3976   -0.9252    0.0000 O   0  0  0  0  0  0  0  0  0  0  0  0
    6.6476    0.3739    0.0000 C   0  0  0  0  0  0  0  0  0  0  0  0
    7.3975   -0.9252    0.0000 O   0  0  0  0  0  0  0  0  0  0  0  0
    7.3975    1.6729    0.0000 N   0  0  0  0  0  0  0  0  0  0  0  0
    2.8975    1.6729    0.0000 C   0  0  0  0  0  0  0  0  0  0  0  0
    2.0160    2.8864    0.0000 C   0  0  0  0  0  0  0  0  0  0  0  0
    0.5893    2.4229    0.0000 C   0  0  0  0  0  0  0  0  0  0  0  0
   -0.7098    3.1729    0.0000 C   0  0  0  0  0  0  0  0  0  0  0  0
   -2.0088    2.4229    0.0000 C   0  0  0  0  0  0  0  0  0  0  0  0
   -2.0088    0.9229    0.0000 C   0  0  0  0  0  0  0  0  0  0  0  0
   -0.7098    0.1729    0.0000 C   0  0  0  0  0  0  0  0  0  0  0  0
    0.5893    0.9229    0.0000 C   0  0  0  0  0  0  0  0  0  0  0  0
    2.0160    0.4594    0.0000 S   0  0  0  0  0  0  0  0  0  0  0  0
  1  2  1  0  0  0  0
  2  3  1  0  0  0  0
  2  8  1  0  0  0  0
  3  4  1  0  0  0  0
  3  5  1  0  0  0  0
  5  6  2  0  0  0  0
  5  7  1  0  0  0  0
  9  8  2  0  0  0  0
  8 16  1  0  0  0  0
 10  9  1  0  0  0  0
 11 10  2  0  0  0  0
 10 15  1  0  0  0  0
 12 11  1  0  0  0  0
 13 12  2  0  0  0  0
 14 13  1  0  0  0  0
 15 14  2  0  0  0  0
 16 15  1  0  0  0  0
M  END
> <Inchi_key>
MWLSOWXNZPKENC-UHFFFAOYSA-N

> <Source>
Mulliner

> <ID>
HT2213

> <H_MFHB>
0

> <CAS>


> <Cholestasis>


> <Name>
zileuton

> <Class>
0


$$$$