
  -INDIGO-08031710012D

  5  5  0  0  0  0  0  0  0  0999 V2000
    0.7969    1.6708    0.0000 C   0  0  0  0  0  0  0  0  0  0  0  0
    0.4087    0.2219    0.0000 N   0  0  0  0  0  0  0  0  0  0  0  0
   -1.0892    0.1434    0.0000 C   0  0  0  0  0  0  0  0  0  0  0  0
   -1.6268    1.5438    0.0000 N   0  0  0  0  0  0  0  0  0  0  0  0
   -0.4611    2.4878    0.0000 N   0  0  0  0  0  0  0  0  0  0  0  0
  2  1  1  0  0  0  0
  1  5  2  0  0  0  0
  3  2  2  0  0  0  0
  4  3  1  0  0  0  0
  5  4  1  0  0  0  0
M  END
> <Inchi_key>
NSPMIYGKQJPBQR-UHFFFAOYSA-N

> <Source>
Mulliner

> <ID>
HT2318

> <H_MFHB>
0

> <CAS>
288-88-0

> <Cholestasis>


> <Name>


> <Class>
0

$$$$