
  -INDIGO-08031710012D

 26 29  0  0  0  0  0  0  0  0999 V2000
   15.9526    2.4973    0.0000 C   0  0  0  0  0  0  0  0  0  0  0  0
   14.5245    2.0389    0.0000 C   0  0  0  0  0  0  0  0  0  0  0  0
   13.4133    3.0466    0.0000 C   0  0  0  0  0  0  0  0  0  0  0  0
   13.7305    4.5127    0.0000 O   0  0  0  0  0  0  0  0  0  0  0  0
   11.9852    2.5882    0.0000 O   0  0  0  0  0  0  0  0  0  0  0  0
   10.8740    3.5959    0.0000 C   0  0  0  0  0  0  0  0  0  0  0  0
   11.0360    5.0871    0.0000 C   0  0  0  0  0  0  0  0  0  0  0  0
    9.6679    5.7021    0.0000 C   0  0  0  0  0  0  0  0  0  0  0  0
    8.6604    4.5910    0.0000 C   0  0  0  0  0  0  0  0  0  0  0  0
    7.1604    4.5964    0.0000 C   0  0  0  0  0  0  0  0  0  0  0  0
    6.4150    5.8981    0.0000 C   0  0  0  0  0  0  0  0  0  0  0  0
    4.9150    5.9035    0.0000 C   0  0  0  0  0  0  0  0  0  0  0  0
    4.1603    4.6071    0.0000 C   0  0  0  0  0  0  0  0  0  0  0  0
    2.6603    4.6125    0.0000 C   0  0  0  0  0  0  0  0  0  0  0  0
    1.9057    3.3162    0.0000 C   0  0  0  0  0  0  0  0  0  0  0  0
    0.4057    3.3216    0.0000 O   0  0  0  0  0  0  0  0  0  0  0  0
    2.6511    2.0145    0.0000 C   0  0  0  0  0  0  0  0  0  0  0  0
    1.8962    0.7181    0.0000 C   0  0  0  0  0  0  0  0  0  0  0  0
    4.1511    2.0091    0.0000 C   0  0  0  0  0  0  0  0  0  0  0  0
    4.9055    3.3054    0.0000 C   0  0  0  0  0  0  0  0  0  0  0  0
    5.6511    2.0037    0.0000 C   0  0  0  0  0  0  0  0  0  0  0  0
    6.4055    3.3001    0.0000 C   0  0  0  0  0  0  0  0  0  0  0  0
    7.1511    1.9983    0.0000 C   0  0  0  0  0  0  0  0  0  0  0  0
    8.6509    1.9930    0.0000 C   0  0  0  0  0  0  0  0  0  0  0  0
    9.4055    3.2893    0.0000 C   0  0  0  0  0  0  0  0  0  0  0  0
   10.2617    2.0575    0.0000 C   0  0  0  0  0  0  0  0  0  0  0  0
  1  2  1  0  0  0  0
  2  3  1  0  0  0  0
  3  4  2  0  0  0  0
  3  5  1  0  0  0  0
  5  6  1  0  0  0  0
  7  6  1  0  0  0  0
  6 25  1  0  0  0  0
  8  7  1  0  0  0  0
  9  8  1  0  0  0  0
 10  9  1  0  0  0  0
  9 25  1  0  0  0  0
 11 10  1  0  0  0  0
 10 22  1  0  0  0  0
 12 11  1  0  0  0  0
 13 12  1  0  0  0  0
 14 13  1  0  0  0  0
 13 20  1  0  0  0  0
 15 14  1  0  0  0  0
 15 16  2  0  0  0  0
 17 15  1  0  0  0  0
 17 18  1  0  0  0  0
 19 17  1  0  0  0  0
 20 19  1  0  0  0  0
 20 21  1  0  0  0  0
 22 20  1  0  0  0  0
 23 22  1  0  0  0  0
 24 23  1  0  0  0  0
 25 24  1  0  0  0  0
 25 26  1  0  0  0  0
M  END
> <Inchi_key>
NOTIQUSPUUHHEH-UHFFFAOYSA-N

> <Source>
Mulliner

> <ID>
HT0723

> <H_MFHB>
0

> <CAS>


> <Cholestasis>


> <Name>
dromostanolone propionate

> <Class>
0

$$$$