

  -INDIGO-08031710012D

 41 45  0  0  0  0  0  0  0  0999 V2000
   10.1688   -2.7247    0.0000 C   0  0  0  0  0  0  0  0  0  0  0  0
    8.8698   -1.9747    0.0000 C   0  0  0  0  0  0  0  0  0  0  0  0
    8.8698   -3.4747    0.0000 C   0  0  0  0  0  0  0  0  0  0  0  0
    9.6198   -0.6757    0.0000 C   0  0  0  0  0  0  0  0  0  0  0  0
    8.8698    0.6234    0.0000 C   0  0  0  0  0  0  0  0  0  0  0  0
    7.3697    0.6234    0.0000 C   0  0  0  0  0  0  0  0  0  0  0  0
    6.6196   -0.6757    0.0000 C   0  0  0  0  0  0  0  0  0  0  0  0
    5.8696    0.6234    0.0000 C   0  0  0  0  0  0  0  0  0  0  0  0
    7.3697   -1.9747    0.0000 C   0  0  0  0  0  0  0  0  0  0  0  0
    6.6196   -3.2737    0.0000 C   0  0  0  0  0  0  0  0  0  0  0  0
    5.1198   -3.2737    0.0000 C   0  0  0  0  0  0  0  0  0  0  0  0
    4.3698   -1.9747    0.0000 C   0  0  0  0  0  0  0  0  0  0  0  0
    4.1092   -3.4519    0.0000 C   0  0  0  0  0  0  0  0  0  0  0  0
    5.1198   -0.6757    0.0000 C   0  0  0  0  0  0  0  0  0  0  0  0
    4.3698    0.6234    0.0000 C   0  0  0  0  0  0  0  0  0  0  0  0
    5.1198    1.9224    0.0000 O   0  0  0  0  0  0  0  0  0  0  0  0
    2.8697    0.6234    0.0000 C   0  0  0  0  0  0  0  0  0  0  0  0
    2.1196   -0.6757    0.0000 C   0  0  0  0  0  0  0  0  0  0  0  0
    0.6198   -0.6757    0.0000 C   0  0  0  0  0  0  0  0  0  0  0  0
   -0.1302    0.6234    0.0000 C   0  0  0  0  0  0  0  0  0  0  0  0
   -1.6303    0.6234    0.0000 C   0  0  0  0  0  0  0  0  0  0  0  0
   -2.9293    1.3734    0.0000 C   0  0  0  0  0  0  0  0  0  0  0  0
   -2.3804   -0.6757    0.0000 C   0  0  0  0  0  0  0  0  0  0  0  0
   -1.6303   -1.9747    0.0000 C   0  0  0  0  0  0  0  0  0  0  0  0
   -0.1302   -1.9747    0.0000 C   0  0  0  0  0  0  0  0  0  0  0  0
   -0.8803   -3.2737    0.0000 C   0  0  0  0  0  0  0  0  0  0  0  0
    0.6198   -3.2737    0.0000 C   0  0  0  0  0  0  0  0  0  0  0  0
    2.1196   -3.2737    0.0000 C   0  0  0  0  0  0  0  0  0  0  0  0
    2.8697   -1.9747    0.0000 C   0  0  0  0  0  0  0  0  0  0  0  0
    3.1303   -3.4519    0.0000 C   0  0  0  0  0  0  0  0  0  0  0  0
   -1.6303    2.1234    0.0000 C   0  0  0  0  0  0  0  0  0  0  0  0
   -0.3314    2.8734    0.0000 O   0  0  0  0  0  0  0  0  0  0  0  0
   -2.9293    2.8734    0.0000 O   0  0  0  0  0  0  0  0  0  0  0  0
   11.1196   -0.6757    0.0000 O   0  0  0  0  0  0  0  0  0  0  0  0
   11.8697    0.6234    0.0000 C   0  0  0  0  0  0  0  0  0  0  0  0
   11.1196    1.9224    0.0000 O   0  0  0  0  0  0  0  0  0  0  0  0
   13.3698    0.6234    0.0000 C   0  0  0  0  0  0  0  0  0  0  0  0
   14.1198    1.9224    0.0000 C   0  0  0  0  0  0  0  0  0  0  0  0
   15.6196    1.9224    0.0000 C   0  0  0  0  0  0  0  0  0  0  0  0
   16.3697    0.6234    0.0000 O   0  0  0  0  0  0  0  0  0  0  0  0
   16.3697    3.2214    0.0000 O   0  0  0  0  0  0  0  0  0  0  0  0
  1  2  1  0  0  0  0
  2  3  1  0  0  0  0
  4  2  1  0  0  0  0
  2  9  1  0  0  0  0
  5  4  1  0  0  0  0
  4 34  1  0  0  0  0
  6  5  1  0  0  0  0
  7  6  1  0  0  0  0
  7  8  1  0  0  0  0
  7  9  1  0  0  0  0
 14  7  1  0  0  0  0
  9 10  1  0  0  0  0
 10 11  1  0  0  0  0
 11 12  1  0  0  0  0
 12 13  1  0  0  0  0
 14 12  1  0  0  0  0
 12 29  1  0  0  0  0
 15 14  1  0  0  0  0
 15 16  2  0  0  0  0
 17 15  1  0  0  0  0
 18 17  2  0  0  0  0
 19 18  1  0  0  0  0
 18 29  1  0  0  0  0
 20 19  1  0  0  0  0
 19 25  1  0  0  0  0
 21 20  1  0  0  0  0
 21 22  1  0  0  0  0
 23 21  1  0  0  0  0
 21 31  1  0  0  0  0
 24 23  1  0  0  0  0
 25 24  1  0  0  0  0
 25 26  1  0  0  0  0
 27 25  1  0  0  0  0
 28 27  1  0  0  0  0
 29 28  1  0  0  0  0
 29 30  1  0  0  0  0
 31 32  2  0  0  0  0
 31 33  1  0  0  0  0
 34 35  1  0  0  0  0
 35 36  2  0  0  0  0
 35 37  1  0  0  0  0
 37 38  1  0  0  0  0
 38 39  1  0  0  0  0
 39 40  2  0  0  0  0
 39 41  1  0  0  0  0
M  END
> <Inchi_key>
OBZHEBDUNPOCJG-UHFFFAOYSA-N

> <Source>
Mulliner , Kotsampasakou

> <ID>
EK0089;HT0375

> <H_MFHB>
0

> <CAS>


> <Cholestasis>
0

> <Name>
carbenoxolone

> <Class>
0


$$$$