
  -INDIGO-08031709442D

 24 27  0  0  0  0  0  0  0  0999 V2000
    7.4517    4.3239    0.0000 O   0  0  0  0  0  0  0  0  0  0  0  0
    6.7072    3.0216    0.0000 C   0  0  0  0  0  0  0  0  0  0  0  0
    5.2073    3.0150    0.0000 C   0  0  0  0  0  0  0  0  0  0  0  0
    4.1987    4.1255    0.0000 N   0  0  0  0  0  0  0  0  0  0  0  0
    4.0354    5.6163    0.0000 C   0  0  0  0  0  0  0  0  0  0  0  0
    2.5668    5.9219    0.0000 C   0  0  0  0  0  0  0  0  0  0  0  0
    1.0669    5.9154    0.0000 N   0  0  0  0  0  0  0  0  0  0  0  0
    1.8226    4.6196    0.0000 C   0  0  0  0  0  0  0  0  0  0  0  0
    2.8311    3.5094    0.0000 C   0  0  0  0  0  0  0  0  0  0  0  0
    1.4743    2.8694    0.0000 O   0  0  0  0  0  0  0  0  0  0  0  0
    0.2419    3.7245    0.0000 C   0  0  0  0  0  0  0  0  0  0  0  0
    2.9944    2.0182    0.0000 C   0  0  0  0  0  0  0  0  0  0  0  0
    4.4629    1.7127    0.0000 C   0  0  0  0  0  0  0  0  0  0  0  0
    5.2186    0.4170    0.0000 C   0  0  0  0  0  0  0  0  0  0  0  0
    4.4743   -0.8853    0.0000 O   0  0  0  0  0  0  0  0  0  0  0  0
    6.7186    0.4234    0.0000 C   0  0  0  0  0  0  0  0  0  0  0  0
    7.4742   -0.8722    0.0000 N   0  0  0  0  0  0  0  0  0  0  0  0
    7.4629    1.7258    0.0000 C   0  0  0  0  0  0  0  0  0  0  0  0
    8.9629    1.7322    0.0000 C   0  0  0  0  0  0  0  0  0  0  0  0
    1.8840    1.0097    0.0000 C   0  0  0  0  0  0  0  0  0  0  0  0
    2.2023   -0.4562    0.0000 O   0  0  0  0  0  0  0  0  0  0  0  0
    1.0921   -1.4647    0.0000 C   0  0  0  0  0  0  0  0  0  0  0  0
    1.4102   -2.9306    0.0000 O   0  0  0  0  0  0  0  0  0  0  0  0
   -0.3366   -1.0075    0.0000 N   0  0  0  0  0  0  0  0  0  0  0  0
  1  2  2  0  0  0  0
  3  2  1  0  0  0  0
  2 18  1  0  0  0  0
  4  3  1  0  0  0  0
  3 13  2  0  0  0  0
  5  4  1  0  0  0  0
  4  9  1  0  0  0  0
  6  5  1  0  0  0  0
  7  6  1  0  0  0  0
  6  8  1  0  0  0  0
  8  7  1  0  0  0  0
  9  8  1  0  0  0  0
  9 10  1  0  0  0  0
 12  9  1  0  0  0  0
 10 11  1  0  0  0  0
 13 12  1  0  0  0  0
 12 20  1  0  0  0  0
 14 13  1  0  0  0  0
 14 15  2  0  0  0  0
 16 14  1  0  0  0  0
 16 17  1  0  0  0  0
 18 16  2  0  0  0  0
 18 19  1  0  0  0  0
 20 21  1  0  0  0  0
 21 22  1  0  0  0  0
 22 23  2  0  0  0  0
 22 24  1  0  0  0  0
M  END
> <Inchi_key>
NWIBSHFKIJFRCO-UHFFFAOYSA-N

> <Source>
Kotsampasakou

> <ID>
EK0358

> <H_MFHB>


> <CAS>


> <Cholestasis>
0

> <Name>
mitomycin

> <Class>
0

$$$$