
  -INDIGO-08031710012D

 18 17  0  0  0  0  0  0  0  0999 V2000
    1.7560    6.2321    0.0000 C   0  0  0  0  0  0  0  0  0  0  0  0
    1.7560    4.7321    0.0000 C   0  0  0  0  0  0  0  0  0  0  0  0
    3.0550    3.9821    0.0000 C   0  0  0  0  0  0  0  0  0  0  0  0
    3.0550    2.4821    0.0000 C   0  0  0  0  0  0  0  0  0  0  0  0
    3.0550    0.9821    0.0000 C   0  0  0  0  0  0  0  0  0  0  0  0
    1.5550    2.4821    0.0000 C   0  0  0  0  0  0  0  0  0  0  0  0
    0.8050    1.1830    0.0000 O   0  0  0  0  0  0  0  0  0  0  0  0
   -0.6950    1.1830    0.0000 C   0  0  0  0  0  0  0  0  0  0  0  0
   -1.4450    2.4821    0.0000 O   0  0  0  0  0  0  0  0  0  0  0  0
   -1.4450   -0.1160    0.0000 N   0  0  0  0  0  0  0  0  0  0  0  0
    4.5550    2.4821    0.0000 C   0  0  0  0  0  0  0  0  0  0  0  0
    5.3050    1.1830    0.0000 O   0  0  0  0  0  0  0  0  0  0  0  0
    6.8050    1.1830    0.0000 C   0  0  0  0  0  0  0  0  0  0  0  0
    7.5550   -0.1160    0.0000 O   0  0  0  0  0  0  0  0  0  0  0  0
    7.5550    2.4821    0.0000 N   0  0  0  0  0  0  0  0  0  0  0  0
    9.0550    2.4821    0.0000 C   0  0  0  0  0  0  0  0  0  0  0  0
    9.8050    3.7811    0.0000 C   0  0  0  0  0  0  0  0  0  0  0  0
    9.8050    1.1830    0.0000 C   0  0  0  0  0  0  0  0  0  0  0  0
  1  2  1  0  0  0  0
  2  3  1  0  0  0  0
  3  4  1  0  0  0  0
  4  5  1  0  0  0  0
  4  6  1  0  0  0  0
  4 11  1  0  0  0  0
  6  7  1  0  0  0  0
  7  8  1  0  0  0  0
  8  9  2  0  0  0  0
  8 10  1  0  0  0  0
 11 12  1  0  0  0  0
 12 13  1  0  0  0  0
 13 14  2  0  0  0  0
 13 15  1  0  0  0  0
 15 16  1  0  0  0  0
 16 17  1  0  0  0  0
 16 18  1  0  0  0  0
M  END
> <Inchi_key>
OFZCIYFFPZCNJE-UHFFFAOYSA-N

> <Source>
Mulliner , Kotsampasakou

> <ID>
EK0094;HT0385

> <H_MFHB>
0

> <CAS>
78-44-4

> <Cholestasis>
0

> <Name>
carisoprodol

> <Class>
0

$$$$