
  -INDIGO-08031709442D

 62 63  0  0  0  0  0  0  0  0999 V2000
   15.6005    4.1802    0.0000 I   0  0  0  0  0  0  0  0  0  0  0  0
   14.3016    3.4301    0.0000 C   0  0  0  0  0  0  0  0  0  0  0  0
   13.0022    4.1802    0.0000 C   0  0  0  0  0  0  0  0  0  0  0  0
   13.0022    5.6801    0.0000 C   0  0  0  0  0  0  0  0  0  0  0  0
   14.3016    6.4302    0.0000 O   0  0  0  0  0  0  0  0  0  0  0  0
   11.7033    6.4302    0.0000 N   0  0  0  0  0  0  0  0  0  0  0  0
   11.7033    7.9301    0.0000 C   0  0  0  0  0  0  0  0  0  0  0  0
   10.4043    8.6801    0.0000 C   0  0  0  0  0  0  0  0  0  0  0  0
    9.1054    7.9301    0.0000 O   0  0  0  0  0  0  0  0  0  0  0  0
   10.4043   10.1800    0.0000 C   0  0  0  0  0  0  0  0  0  0  0  0
   11.7033   10.9301    0.0000 O   0  0  0  0  0  0  0  0  0  0  0  0
   11.7033    3.4301    0.0000 C   0  0  0  0  0  0  0  0  0  0  0  0
   10.4043    4.1802    0.0000 I   0  0  0  0  0  0  0  0  0  0  0  0
   11.7033    1.9300    0.0000 C   0  0  0  0  0  0  0  0  0  0  0  0
   10.4043    1.1802    0.0000 N   0  0  0  0  0  0  0  0  0  0  0  0
   10.4043   -0.3200    0.0000 C   0  0  0  0  0  0  0  0  0  0  0  0
   11.7033   -1.0698    0.0000 O   0  0  0  0  0  0  0  0  0  0  0  0
    9.1054   -1.0698    0.0000 C   0  0  0  0  0  0  0  0  0  0  0  0
    9.1054    1.9300    0.0000 C   0  0  0  0  0  0  0  0  0  0  0  0
    7.8064    1.1802    0.0000 C   0  0  0  0  0  0  0  0  0  0  0  0
    7.8064   -0.3200    0.0000 O   0  0  0  0  0  0  0  0  0  0  0  0
    6.5075    1.9300    0.0000 C   0  0  0  0  0  0  0  0  0  0  0  0
    5.2081    1.1802    0.0000 N   0  0  0  0  0  0  0  0  0  0  0  0
    5.2081   -0.3200    0.0000 C   0  0  0  0  0  0  0  0  0  0  0  0
    6.5075   -1.0698    0.0000 O   0  0  0  0  0  0  0  0  0  0  0  0
    3.9092   -1.0698    0.0000 C   0  0  0  0  0  0  0  0  0  0  0  0
    3.9092    1.9300    0.0000 C   0  0  0  0  0  0  0  0  0  0  0  0
    3.9092    3.4301    0.0000 C   0  0  0  0  0  0  0  0  0  0  0  0
    5.2081    4.1802    0.0000 I   0  0  0  0  0  0  0  0  0  0  0  0
    2.6102    4.1802    0.0000 C   0  0  0  0  0  0  0  0  0  0  0  0
    2.6102    5.6801    0.0000 C   0  0  0  0  0  0  0  0  0  0  0  0
    3.9092    6.4302    0.0000 O   0  0  0  0  0  0  0  0  0  0  0  0
    1.3112    6.4302    0.0000 N   0  0  0  0  0  0  0  0  0  0  0  0
    1.3112    7.9301    0.0000 C   0  0  0  0  0  0  0  0  0  0  0  0
    0.0119    8.6801    0.0000 C   0  0  0  0  0  0  0  0  0  0  0  0
    0.0119   10.1800    0.0000 O   0  0  0  0  0  0  0  0  0  0  0  0
   -1.2870    7.9301    0.0000 C   0  0  0  0  0  0  0  0  0  0  0  0
   -2.5860    8.6801    0.0000 O   0  0  0  0  0  0  0  0  0  0  0  0
    1.3112    3.4301    0.0000 C   0  0  0  0  0  0  0  0  0  0  0  0
    0.0119    4.1802    0.0000 I   0  0  0  0  0  0  0  0  0  0  0  0
    1.3112    1.9300    0.0000 C   0  0  0  0  0  0  0  0  0  0  0  0
    0.0119    1.1802    0.0000 C   0  0  0  0  0  0  0  0  0  0  0  0
   -1.2870    1.9300    0.0000 O   0  0  0  0  0  0  0  0  0  0  0  0
    0.0119   -0.3200    0.0000 N   0  0  0  0  0  0  0  0  0  0  0  0
   -1.2870   -1.0698    0.0000 C   0  0  0  0  0  0  0  0  0  0  0  0
   -1.2870   -2.5699    0.0000 C   0  0  0  0  0  0  0  0  0  0  0  0
    0.0119   -3.3200    0.0000 O   0  0  0  0  0  0  0  0  0  0  0  0
   -2.5860   -3.3200    0.0000 C   0  0  0  0  0  0  0  0  0  0  0  0
   -2.5860   -4.8199    0.0000 O   0  0  0  0  0  0  0  0  0  0  0  0
    2.6102    1.1802    0.0000 C   0  0  0  0  0  0  0  0  0  0  0  0
    2.6102   -0.3200    0.0000 I   0  0  0  0  0  0  0  0  0  0  0  0
   13.0022    1.1802    0.0000 C   0  0  0  0  0  0  0  0  0  0  0  0
   13.0022   -0.3200    0.0000 I   0  0  0  0  0  0  0  0  0  0  0  0
   14.3016    1.9300    0.0000 C   0  0  0  0  0  0  0  0  0  0  0  0
   15.6005    1.1802    0.0000 C   0  0  0  0  0  0  0  0  0  0  0  0
   15.6005   -0.3200    0.0000 O   0  0  0  0  0  0  0  0  0  0  0  0
   16.8995    1.9300    0.0000 N   0  0  0  0  0  0  0  0  0  0  0  0
   18.1985    1.1802    0.0000 C   0  0  0  0  0  0  0  0  0  0  0  0
   19.4978    1.9300    0.0000 C   0  0  0  0  0  0  0  0  0  0  0  0
   19.4978    3.4301    0.0000 O   0  0  0  0  0  0  0  0  0  0  0  0
   20.7967    1.1802    0.0000 C   0  0  0  0  0  0  0  0  0  0  0  0
   22.0957    1.9300    0.0000 O   0  0  0  0  0  0  0  0  0  0  0  0
  1  2  1  0  0  0  0
  3  2  2  0  0  0  0
  2 54  1  0  0  0  0
  3  4  1  0  0  0  0
 12  3  1  0  0  0  0
  4  5  2  0  0  0  0
  4  6  1  0  0  0  0
  6  7  1  0  0  0  0
  7  8  1  0  0  0  0
  8  9  1  0  0  0  0
  8 10  1  0  0  0  0
 10 11  1  0  0  0  0
 12 13  1  0  0  0  0
 14 12  2  0  0  0  0
 14 15  1  0  0  0  0
 52 14  1  0  0  0  0
 15 16  1  0  0  0  0
 15 19  1  0  0  0  0
 16 17  2  0  0  0  0
 16 18  1  0  0  0  0
 19 20  1  0  0  0  0
 20 21  1  0  0  0  0
 20 22  1  0  0  0  0
 22 23  1  0  0  0  0
 23 24  1  0  0  0  0
 23 27  1  0  0  0  0
 24 25  2  0  0  0  0
 24 26  1  0  0  0  0
 28 27  2  0  0  0  0
 27 50  1  0  0  0  0
 28 29  1  0  0  0  0
 30 28  1  0  0  0  0
 30 31  1  0  0  0  0
 39 30  2  0  0  0  0
 31 32  2  0  0  0  0
 31 33  1  0  0  0  0
 33 34  1  0  0  0  0
 34 35  1  0  0  0  0
 35 36  1  0  0  0  0
 35 37  1  0  0  0  0
 37 38  1  0  0  0  0
 39 40  1  0  0  0  0
 41 39  1  0  0  0  0
 41 42  1  0  0  0  0
 50 41  2  0  0  0  0
 42 43  2  0  0  0  0
 42 44  1  0  0  0  0
 44 45  1  0  0  0  0
 45 46  1  0  0  0  0
 46 47  1  0  0  0  0
 46 48  1  0  0  0  0
 48 49  1  0  0  0  0
 50 51  1  0  0  0  0
 52 53  1  0  0  0  0
 54 52  2  0  0  0  0
 54 55  1  0  0  0  0
 55 56  2  0  0  0  0
 55 57  1  0  0  0  0
 57 58  1  0  0  0  0
 58 59  1  0  0  0  0
 59 60  1  0  0  0  0
 59 61  1  0  0  0  0
 61 62  1  0  0  0  0
M  END
> <Inchi_key>
NBQNWMBBSKPBAY-UHFFFAOYSA-N

> <Source>
Kotsampasakou

> <ID>
EK0272

> <H_MFHB>


> <CAS>


> <Cholestasis>
0

> <Name>
iodixanol

> <Class>
0

$$$$