

  -INDIGO-08031710012D

 16 18  0  0  0  0  0  0  0  0999 V2000
    1.4713    5.4911    0.0000 C   0  0  0  0  0  0  0  0  0  0  0  0
    2.7704    4.7411    0.0000 O   0  0  0  0  0  0  0  0  0  0  0  0
    2.7704    3.2411    0.0000 C   0  0  0  0  0  0  0  0  0  0  0  0
    4.0694    2.4911    0.0000 C   0  0  0  0  0  0  0  0  0  0  0  0
    5.3685    3.2411    0.0000 C   0  0  0  0  0  0  0  0  0  0  0  0
    6.6675    2.4911    0.0000 C   0  0  0  0  0  0  0  0  0  0  0  0
    6.6675    0.9911    0.0000 C   0  0  0  0  0  0  0  0  0  0  0  0
    7.9665    0.2411    0.0000 O   0  0  0  0  0  0  0  0  0  0  0  0
    5.3685    0.2411    0.0000 O   0  0  0  0  0  0  0  0  0  0  0  0
    4.0694    0.9911    0.0000 C   0  0  0  0  0  0  0  0  0  0  0  0
    2.7704    0.2411    0.0000 C   0  0  0  0  0  0  0  0  0  0  0  0
    1.4713    0.9911    0.0000 C   0  0  0  0  0  0  0  0  0  0  0  0
    0.0449    0.5276    0.0000 O   0  0  0  0  0  0  0  0  0  0  0  0
   -0.8369    1.7411    0.0000 C   0  0  0  0  0  0  0  0  0  0  0  0
    0.0449    2.9547    0.0000 C   0  0  0  0  0  0  0  0  0  0  0  0
    1.4713    2.4911    0.0000 C   0  0  0  0  0  0  0  0  0  0  0  0
  1  2  1  0  0  0  0
  2  3  1  0  0  0  0
  4  3  2  0  0  0  0
  3 16  1  0  0  0  0
  5  4  1  0  0  0  0
  4 10  1  0  0  0  0
  6  5  2  0  0  0  0
  7  6  1  0  0  0  0
  7  8  2  0  0  0  0
  9  7  1  0  0  0  0
 10  9  1  0  0  0  0
 11 10  2  0  0  0  0
 12 11  1  0  0  0  0
 13 12  1  0  0  0  0
 12 16  2  0  0  0  0
 14 13  1  0  0  0  0
 15 14  2  0  0  0  0
 16 15  1  0  0  0  0
M  END
> <Inchi_key>
BGEBZHIAGXMEMV-UHFFFAOYSA-N

> <Source>
Mulliner

> <ID>
HT0041

> <H_MFHB>
0

> <CAS>


> <Cholestasis>


> <Name>
5-methoxypsoralen

> <Class>
0


$$$$