
  -INDIGO-08031710012D

 13 13  0  0  0  0  0  0  0  0999 V2000
    9.1656    2.3405    0.0000 C   0  0  0  0  0  0  0  0  0  0  0  0
    7.8666    3.0905    0.0000 N   0  0  0  0  0  0  0  0  0  0  0  0
    6.5675    2.3405    0.0000 C   0  0  0  0  0  0  0  0  0  0  0  0
    6.5675    0.8405    0.0000 C   0  0  0  0  0  0  0  0  0  0  0  0
    5.2686    3.0905    0.0000 C   0  0  0  0  0  0  0  0  0  0  0  0
    3.9695    2.3405    0.0000 C   0  0  0  0  0  0  0  0  0  0  0  0
    3.9695    0.8405    0.0000 C   0  0  0  0  0  0  0  0  0  0  0  0
    2.6704    0.0905    0.0000 C   0  0  0  0  0  0  0  0  0  0  0  0
    1.3714    0.8405    0.0000 C   0  0  0  0  0  0  0  0  0  0  0  0
    1.3714    2.3405    0.0000 C   0  0  0  0  0  0  0  0  0  0  0  0
    2.6704    3.0905    0.0000 C   0  0  0  0  0  0  0  0  0  0  0  0
    2.6704    4.5905    0.0000 O   0  0  0  0  0  0  0  0  0  0  0  0
    1.3714    5.3405    0.0000 C   0  0  0  0  0  0  0  0  0  0  0  0
  1  2  1  0  0  0  0
  2  3  1  0  0  0  0
  3  4  1  0  0  0  0
  3  5  1  0  0  0  0
  5  6  1  0  0  0  0
  7  6  2  0  0  0  0
  6 11  1  0  0  0  0
  8  7  1  0  0  0  0
  9  8  2  0  0  0  0
 10  9  1  0  0  0  0
 11 10  2  0  0  0  0
 11 12  1  0  0  0  0
 12 13  1  0  0  0  0
M  END
> <Inchi_key>
OEHAYUOVELTAPG-UHFFFAOYSA-N

> <Source>
Mulliner

> <ID>
HT2769

> <H_MFHB>
0

> <CAS>


> <Cholestasis>


> <Name>


> <Class>
0

$$$$