

  -INDIGO-08031710012D

 19 19  0  0  0  0  0  0  0  0999 V2000
   11.1348   -3.9056    0.0000 C   0  0  0  0  0  0  0  0  0  0  0  0
    9.8357   -4.6556    0.0000 C   0  0  0  0  0  0  0  0  0  0  0  0
    8.5367   -3.9056    0.0000 C   0  0  0  0  0  0  0  0  0  0  0  0
    7.2378   -3.1556    0.0000 C   0  0  0  0  0  0  0  0  0  0  0  0
    5.9386   -2.4056    0.0000 C   0  0  0  0  0  0  0  0  0  0  0  0
    5.9386   -0.9056    0.0000 C   0  0  0  0  0  0  0  0  0  0  0  0
    4.6395   -3.1556    0.0000 C   0  0  0  0  0  0  0  0  0  0  0  0
    4.6395   -1.6556    0.0000 C   0  0  0  0  0  0  0  0  0  0  0  0
    3.3406   -0.9056    0.0000 C   0  0  0  0  0  0  0  0  0  0  0  0
    3.3406    0.5944    0.0000 C   0  0  0  0  0  0  0  0  0  0  0  0
    5.3896   -4.4547    0.0000 C   0  0  0  0  0  0  0  0  0  0  0  0
    6.8896   -4.4547    0.0000 O   0  0  0  0  0  0  0  0  0  0  0  0
    4.6395   -5.7537    0.0000 N   0  0  0  0  0  0  0  0  0  0  0  0
    3.1395   -5.7537    0.0000 C   0  0  0  0  0  0  0  0  0  0  0  0
    2.3896   -7.0527    0.0000 O   0  0  0  0  0  0  0  0  0  0  0  0
    2.3896   -4.4547    0.0000 N   0  0  0  0  0  0  0  0  0  0  0  0
    0.8896   -4.4547    0.0000 C   0  0  0  0  0  0  0  0  0  0  0  0
    3.1395   -3.1556    0.0000 C   0  0  0  0  0  0  0  0  0  0  0  0
    2.3896   -1.8566    0.0000 O   0  0  0  0  0  0  0  0  0  0  0  0
  1  2  1  0  0  0  0
  2  3  1  0  0  0  0
  3  4  3  0  0  0  0
  4  5  1  0  0  0  0
  5  6  1  0  0  0  0
  5  7  1  0  0  0  0
  7  8  1  0  0  0  0
 11  7  1  0  0  0  0
  7 18  1  0  0  0  0
  8  9  1  0  0  0  0
  9 10  2  0  0  0  0
 11 12  2  0  0  0  0
 13 11  1  0  0  0  0
 14 13  1  0  0  0  0
 14 15  2  0  0  0  0
 16 14  1  0  0  0  0
 16 17  1  0  0  0  0
 18 16  1  0  0  0  0
 18 19  2  0  0  0  0
M  END
> <Inchi_key>
NZXKDOXHBHYTKP-UHFFFAOYSA-N

> <Source>
Mulliner , Kotsampasakou

> <ID>
EK0333;HT1345

> <H_MFHB>
0

> <CAS>


> <Cholestasis>
0

> <Name>
methohexital sodium;methohexital

> <Class>
0


$$$$