
  -INDIGO-08031710012D

  7  6  0  0  0  0  0  0  0  0999 V2000
    6.6331   -1.5630    0.0000 C   0  0  0  0  0  0  0  0  0  0  0  0
    5.3341   -2.3130    0.0000 C   0  0  0  0  0  0  0  0  0  0  0  0
    4.0350   -1.5630    0.0000 C   0  0  0  0  0  0  0  0  0  0  0  0
    2.7360   -2.3130    0.0000 C   0  0  0  0  0  0  0  0  0  0  0  0
    1.4370   -1.5630    0.0000 C   0  0  0  0  0  0  0  0  0  0  0  0
    0.1379   -2.3130    0.0000 O   0  0  0  0  0  0  0  0  0  0  0  0
    1.4370   -0.0630    0.0000 O   0  0  0  0  0  0  0  0  0  0  0  0
  1  2  1  0  0  0  0
  2  3  1  0  0  0  0
  3  4  1  0  0  0  0
  4  5  1  0  0  0  0
  5  6  2  0  0  0  0
  5  7  1  0  0  0  0
M  END
> <Inchi_key>
NQPDZGIKBAWPEJ-UHFFFAOYSA-N

> <Source>
Mulliner

> <ID>
HT1620

> <H_MFHB>
0

> <CAS>


> <Cholestasis>


> <Name>
pentanoic acid

> <Class>
0

$$$$