

  -INDIGO-08031710012D

 27 29  0  0  0  0  0  0  0  0999 V2000
   -4.1842    4.1841    0.0000 C   0  0  0  0  0  0  0  0  0  0  0  0
   -4.1842    5.6841    0.0000 O   0  0  0  0  0  0  0  0  0  0  0  0
   -2.8850    6.4342    0.0000 C   0  0  0  0  0  0  0  0  0  0  0  0
   -1.5860    5.6841    0.0000 C   0  0  0  0  0  0  0  0  0  0  0  0
   -0.2871    6.4342    0.0000 C   0  0  0  0  0  0  0  0  0  0  0  0
    1.0119    5.6841    0.0000 N   0  0  0  0  0  0  0  0  0  0  0  0
    2.3111    6.4342    0.0000 C   0  0  0  0  0  0  0  0  0  0  0  0
    3.6101    5.6841    0.0000 C   0  0  0  0  0  0  0  0  0  0  0  0
    3.6101    4.1841    0.0000 C   0  0  0  0  0  0  0  0  0  0  0  0
    4.9091    3.4342    0.0000 C   0  0  0  0  0  0  0  0  0  0  0  0
    6.2080    4.1841    0.0000 C   0  0  0  0  0  0  0  0  0  0  0  0
    7.5073    3.4342    0.0000 N   0  0  0  0  0  0  0  0  0  0  0  0
    8.8062    4.1841    0.0000 C   0  0  0  0  0  0  0  0  0  0  0  0
   10.1052    3.4342    0.0000 N   0  0  0  0  0  0  0  0  0  0  0  0
    8.8062    5.6841    0.0000 N   0  0  0  0  0  0  0  0  0  0  0  0
    7.5073    6.4342    0.0000 C   0  0  0  0  0  0  0  0  0  0  0  0
    7.5073    7.9342    0.0000 N   0  0  0  0  0  0  0  0  0  0  0  0
    6.2080    5.6841    0.0000 C   0  0  0  0  0  0  0  0  0  0  0  0
    4.9091    6.4342    0.0000 C   0  0  0  0  0  0  0  0  0  0  0  0
    4.9091    7.9342    0.0000 C   0  0  0  0  0  0  0  0  0  0  0  0
   -0.2871    7.9342    0.0000 C   0  0  0  0  0  0  0  0  0  0  0  0
   -1.5860    8.6843    0.0000 C   0  0  0  0  0  0  0  0  0  0  0  0
   -1.5860   10.1843    0.0000 O   0  0  0  0  0  0  0  0  0  0  0  0
   -0.2871   10.9342    0.0000 C   0  0  0  0  0  0  0  0  0  0  0  0
   -2.8850    7.9342    0.0000 C   0  0  0  0  0  0  0  0  0  0  0  0
   -4.1842    8.6843    0.0000 O   0  0  0  0  0  0  0  0  0  0  0  0
   -5.4832    7.9342    0.0000 C   0  0  0  0  0  0  0  0  0  0  0  0
  1  2  1  0  0  0  0
  2  3  1  0  0  0  0
  4  3  2  0  0  0  0
  3 25  1  0  0  0  0
  5  4  1  0  0  0  0
  5  6  1  0  0  0  0
 21  5  2  0  0  0  0
  6  7  1  0  0  0  0
  7  8  1  0  0  0  0
  9  8  2  0  0  0  0
  8 19  1  0  0  0  0
 10  9  1  0  0  0  0
 11 10  2  0  0  0  0
 12 11  1  0  0  0  0
 11 18  1  0  0  0  0
 13 12  2  0  0  0  0
 13 14  1  0  0  0  0
 15 13  1  0  0  0  0
 16 15  2  0  0  0  0
 16 17  1  0  0  0  0
 18 16  1  0  0  0  0
 19 18  2  0  0  0  0
 19 20  1  0  0  0  0
 22 21  1  0  0  0  0
 22 23  1  0  0  0  0
 25 22  2  0  0  0  0
 23 24  1  0  0  0  0
 25 26  1  0  0  0  0
 26 27  1  0  0  0  0
M  END
> <Inchi_key>
NOYPYLRCIDNJJB-UHFFFAOYSA-N

> <Source>
Mulliner , Kotsampasakou

> <ID>
EK0553;HT2129

> <H_MFHB>
0

> <CAS>


> <Cholestasis>
0

> <Name>
trimetrexate glucuronate;trimetrexate

> <Class>
0


$$$$