

  -INDIGO-08031710012D

 23 22  0  0  0  0  0  0  0  0999 V2000
   26.8438    6.4754    0.0000 C   0  0  0  0  0  0  0  0  0  0  0  0
   25.5447    7.2254    0.0000 C   0  0  0  0  0  0  0  0  0  0  0  0
   24.2456    6.4754    0.0000 C   0  0  0  0  0  0  0  0  0  0  0  0
   22.9465    7.2254    0.0000 C   0  0  0  0  0  0  0  0  0  0  0  0
   21.6474    6.4754    0.0000 C   0  0  0  0  0  0  0  0  0  0  0  0
   20.3487    7.2254    0.0000 C   0  0  0  0  0  0  0  0  0  0  0  0
   19.0496    6.4754    0.0000 C   0  0  0  0  0  0  0  0  0  0  0  0
   17.7505    7.2254    0.0000 C   0  0  0  0  0  0  0  0  0  0  0  0
   16.4514    6.4754    0.0000 C   0  0  0  0  0  0  0  0  0  0  0  0
   15.1523    7.2254    0.0000 C   0  0  0  0  0  0  0  0  0  0  0  0
   13.8532    6.4754    0.0000 C   0  0  0  0  0  0  0  0  0  0  0  0
   12.5541    7.2254    0.0000 C   0  0  0  0  0  0  0  0  0  0  0  0
   11.2555    6.4754    0.0000 C   0  0  0  0  0  0  0  0  0  0  0  0
    9.9564    7.2254    0.0000 C   0  0  0  0  0  0  0  0  0  0  0  0
    8.6573    6.4754    0.0000 C   0  0  0  0  0  0  0  0  0  0  0  0
    7.3582    7.2254    0.0000 C   0  0  0  0  0  0  0  0  0  0  0  0
    6.0591    6.4754    0.0000 C   0  0  0  0  0  0  0  0  0  0  0  0
    4.7600    7.2254    0.0000 C   0  0  0  0  0  0  0  0  0  0  0  0
    3.4613    6.4754    0.0000 C   0  0  0  0  0  0  0  0  0  0  0  0
    2.1622    7.2254    0.0000 C   0  0  0  0  0  0  0  0  0  0  0  0
    0.8631    6.4754    0.0000 C   0  0  0  0  0  0  0  0  0  0  0  0
   -0.4360    7.2254    0.0000 C   0  0  0  0  0  0  0  0  0  0  0  0
   -1.7351    6.4754    0.0000 O   0  0  0  0  0  0  0  0  0  0  0  0
  1  2  1  0  0  0  0
  2  3  1  0  0  0  0
  3  4  1  0  0  0  0
  4  5  1  0  0  0  0
  5  6  1  0  0  0  0
  6  7  1  0  0  0  0
  7  8  1  0  0  0  0
  8  9  1  0  0  0  0
  9 10  1  0  0  0  0
 10 11  1  0  0  0  0
 11 12  1  0  0  0  0
 12 13  1  0  0  0  0
 13 14  1  0  0  0  0
 14 15  1  0  0  0  0
 15 16  1  0  0  0  0
 16 17  1  0  0  0  0
 17 18  1  0  0  0  0
 18 19  1  0  0  0  0
 19 20  1  0  0  0  0
 20 21  1  0  0  0  0
 21 22  1  0  0  0  0
 22 23  1  0  0  0  0
M  END
> <Inchi_key>
NOPFSRXAKWQILS-UHFFFAOYSA-N

> <Source>
Mulliner , Kotsampasakou

> <ID>
EK0171;HT0703

> <H_MFHB>
0

> <CAS>


> <Cholestasis>
0

> <Name>
docosanol;tadenan

> <Class>
0


$$$$