
  -INDIGO-08031710012D

 16 16  0  0  0  0  0  0  0  0999 V2000
   -0.7500    1.2990    0.0000 Br  0  0  0  0  0  0  0  0  0  0  0  0
    0.0000    2.5981    0.0000 C   0  0  0  0  0  0  0  0  0  0  0  0
    1.5000    2.5981    0.0000 C   0  0  0  0  0  0  0  0  0  0  0  0
    2.2500    3.8971    0.0000 C   0  0  0  0  0  0  0  0  0  0  0  0
    1.5000    5.1962    0.0000 O   0  0  0  0  0  0  0  0  0  0  0  0
    3.7501    3.8971    0.0000 N   0  0  0  0  0  0  0  0  0  0  0  0
    4.5001    5.1962    0.0000 C   0  0  0  0  0  0  0  0  0  0  0  0
    5.9999    5.1962    0.0000 C   0  0  0  0  0  0  0  0  0  0  0  0
    6.7499    3.8971    0.0000 N   0  0  0  0  0  0  0  0  0  0  0  0
    5.9999    2.5981    0.0000 C   0  0  0  0  0  0  0  0  0  0  0  0
    4.5001    2.5981    0.0000 C   0  0  0  0  0  0  0  0  0  0  0  0
    8.2500    3.8971    0.0000 C   0  0  0  0  0  0  0  0  0  0  0  0
    9.0000    2.5981    0.0000 O   0  0  0  0  0  0  0  0  0  0  0  0
    9.0000    5.1962    0.0000 C   0  0  0  0  0  0  0  0  0  0  0  0
   10.5000    5.1962    0.0000 C   0  0  0  0  0  0  0  0  0  0  0  0
   11.2500    6.4952    0.0000 Br  0  0  0  0  0  0  0  0  0  0  0  0
  1  2  1  0  0  0  0
  2  3  1  0  0  0  0
  3  4  1  0  0  0  0
  4  5  2  0  0  0  0
  4  6  1  0  0  0  0
  7  6  1  0  0  0  0
  6 11  1  0  0  0  0
  8  7  1  0  0  0  0
  9  8  1  0  0  0  0
 10  9  1  0  0  0  0
  9 12  1  0  0  0  0
 11 10  1  0  0  0  0
 12 13  2  0  0  0  0
 12 14  1  0  0  0  0
 14 15  1  0  0  0  0
 15 16  1  0  0  0  0
M  END
> <Inchi_key>
NJBFOOCLYDNZJN-UHFFFAOYSA-N

> <Source>
Mulliner

> <ID>
HT1685

> <H_MFHB>
0

> <CAS>
54-91-1

> <Cholestasis>


> <Name>
pipobroman

> <Class>
0

$$$$