
  -INDIGO-08031710012D

 29 29  0  0  0  0  0  0  0  0999 V2000
   18.0421   -5.1485    0.0000 C   0  0  0  0  0  0  0  0  0  0  0  0
   18.0471   -6.6485    0.0000 C   0  0  0  0  0  0  0  0  0  0  0  0
   16.7504   -7.4028    0.0000 C   0  0  0  0  0  0  0  0  0  0  0  0
   16.7554   -8.9028    0.0000 C   0  0  0  0  0  0  0  0  0  0  0  0
   15.4591   -9.6570    0.0000 C   0  0  0  0  0  0  0  0  0  0  0  0
   15.4641  -11.1571    0.0000 C   0  0  0  0  0  0  0  0  0  0  0  0
   14.1674  -11.9115    0.0000 C   0  0  0  0  0  0  0  0  0  0  0  0
   14.1724  -13.4114    0.0000 C   0  0  0  0  0  0  0  0  0  0  0  0
   12.8757  -14.1656    0.0000 C   0  0  0  0  0  0  0  0  0  0  0  0
   11.5744  -13.4199    0.0000 C   0  0  0  0  0  0  0  0  0  0  0  0
   10.2777  -14.1742    0.0000 C   0  0  0  0  0  0  0  0  0  0  0  0
    8.9761  -13.4285    0.0000 C   0  0  0  0  0  0  0  0  0  0  0  0
    7.6797  -14.1828    0.0000 C   0  0  0  0  0  0  0  0  0  0  0  0
    6.3781  -13.4372    0.0000 C   0  0  0  0  0  0  0  0  0  0  0  0
    5.0818  -14.1914    0.0000 C   0  0  0  0  0  0  0  0  0  0  0  0
    3.7801  -13.4457    0.0000 C   0  0  0  0  0  0  0  0  0  0  0  0
    3.7751  -11.9458    0.0000 C   0  0  0  0  0  0  0  0  0  0  0  0
    5.0718  -11.1915    0.0000 O   0  0  0  0  0  0  0  0  0  0  0  0
    2.4735  -11.2001    0.0000 O   0  0  0  0  0  0  0  0  0  0  0  0
    1.1771  -11.9544    0.0000 C   0  0  0  0  0  0  0  0  0  0  0  0
   -0.1245  -11.2087    0.0000 C   0  0  0  0  0  0  0  0  0  0  0  0
   -0.1295   -9.7087    0.0000 O   0  0  0  0  0  0  0  0  0  0  0  0
   -1.4208  -11.9631    0.0000 C   0  0  0  0  0  0  0  0  0  0  0  0
   -1.5729  -13.4552    0.0000 O   0  0  0  0  0  0  0  0  0  0  0  0
   -3.0390  -13.7721    0.0000 C   0  0  0  0  0  0  0  0  0  0  0  0
   -3.7935  -12.4754    0.0000 C   0  0  0  0  0  0  0  0  0  0  0  0
   -5.2856  -12.3236    0.0000 O   0  0  0  0  0  0  0  0  0  0  0  0
   -2.7934  -11.3574    0.0000 C   0  0  0  0  0  0  0  0  0  0  0  0
   -3.1099   -9.8912    0.0000 O   0  0  0  0  0  0  0  0  0  0  0  0
  1  2  1  0  0  0  0
  2  3  1  0  0  0  0
  3  4  1  0  0  0  0
  4  5  1  0  0  0  0
  5  6  1  0  0  0  0
  6  7  1  0  0  0  0
  7  8  1  0  0  0  0
  8  9  2  0  0  0  0
  9 10  1  0  0  0  0
 10 11  1  0  0  0  0
 11 12  1  0  0  0  0
 12 13  1  0  0  0  0
 13 14  1  0  0  0  0
 14 15  1  0  0  0  0
 15 16  1  0  0  0  0
 16 17  1  0  0  0  0
 17 18  2  0  0  0  0
 17 19  1  0  0  0  0
 19 20  1  0  0  0  0
 20 21  1  0  0  0  0
 21 22  1  0  0  0  0
 21 23  1  0  0  0  0
 24 23  1  0  0  0  0
 23 28  1  0  0  0  0
 25 24  1  0  0  0  0
 26 25  1  0  0  0  0
 26 27  1  0  0  0  0
 28 26  1  0  0  0  0
 28 29  1  0  0  0  0
M  END
> <Inchi_key>
NMCCHSDPWULRPW-HJWRWDBZSA-N

> <Source>
Mulliner

> <ID>
HT3793

> <H_MFHB>
0

> <CAS>


> <Cholestasis>


> <Name>


> <Class>
0

$$$$