

  -INDIGO-08031710012D

 28 29  0  0  0  0  0  0  0  0999 V2000
    4.9485    1.3260    0.0000 C   0  0  0  0  0  0  0  0  0  0  0  0
    3.6495    0.5760    0.0000 C   0  0  0  0  0  0  0  0  0  0  0  0
    3.6495   -0.9240    0.0000 C   0  0  0  0  0  0  0  0  0  0  0  0
    2.3505   -1.6740    0.0000 C   0  0  0  0  0  0  0  0  0  0  0  0
    2.3505   -3.1740    0.0000 C   0  0  0  0  0  0  0  0  0  0  0  0
    1.0515   -3.9240    0.0000 C   0  0  0  0  0  0  0  0  0  0  0  0
    1.0515   -0.9240    0.0000 C   0  0  0  0  0  0  0  0  0  0  0  0
    1.0515    0.5760    0.0000 C   0  0  0  0  0  0  0  0  0  0  0  0
   -0.2475    1.3260    0.0000 C   0  0  0  0  0  0  0  0  0  0  0  0
   -1.5467    0.5760    0.0000 C   0  0  0  0  0  0  0  0  0  0  0  0
   -2.8457    1.3260    0.0000 O   0  0  0  0  0  0  0  0  0  0  0  0
   -4.1447    0.5760    0.0000 P   0  0  0  0  0  0  0  0  0  0  0  0
   -3.3946   -0.7231    0.0000 O   0  0  0  0  0  0  0  0  0  0  0  0
   -5.4437   -0.1740    0.0000 O   0  0  0  0  0  0  0  0  0  0  0  0
   -4.8946    1.8750    0.0000 O   0  0  0  0  0  0  0  0  0  0  0  0
   -1.5467   -0.9240    0.0000 C   0  0  0  0  0  0  0  0  0  0  0  0
   -0.2475   -1.6740    0.0000 C   0  0  0  0  0  0  0  0  0  0  0  0
    4.9485   -1.6740    0.0000 C   0  0  0  0  0  0  0  0  0  0  0  0
    4.9485   -3.1740    0.0000 C   0  0  0  0  0  0  0  0  0  0  0  0
    6.2475   -3.9240    0.0000 C   0  0  0  0  0  0  0  0  0  0  0  0
    7.5467   -3.1740    0.0000 C   0  0  0  0  0  0  0  0  0  0  0  0
    8.8457   -3.9240    0.0000 O   0  0  0  0  0  0  0  0  0  0  0  0
   10.1447   -3.1740    0.0000 P   0  0  0  0  0  0  0  0  0  0  0  0
    9.3946   -1.8750    0.0000 O   0  0  0  0  0  0  0  0  0  0  0  0
   10.8946   -4.4731    0.0000 O   0  0  0  0  0  0  0  0  0  0  0  0
   11.4437   -2.4240    0.0000 O   0  0  0  0  0  0  0  0  0  0  0  0
    7.5467   -1.6740    0.0000 C   0  0  0  0  0  0  0  0  0  0  0  0
    6.2475   -0.9240    0.0000 C   0  0  0  0  0  0  0  0  0  0  0  0
  1  2  1  0  0  0  0
  2  3  1  0  0  0  0
  3  4  2  0  0  0  0
  3 18  1  0  0  0  0
  4  5  1  0  0  0  0
  4  7  1  0  0  0  0
  5  6  1  0  0  0  0
  8  7  2  0  0  0  0
  7 17  1  0  0  0  0
  9  8  1  0  0  0  0
 10  9  2  0  0  0  0
 10 11  1  0  0  0  0
 16 10  1  0  0  0  0
 11 12  1  0  0  0  0
 12 13  2  0  0  0  0
 12 14  1  0  0  0  0
 12 15  1  0  0  0  0
 17 16  2  0  0  0  0
 19 18  2  0  0  0  0
 18 28  1  0  0  0  0
 20 19  1  0  0  0  0
 21 20  2  0  0  0  0
 21 22  1  0  0  0  0
 27 21  1  0  0  0  0
 22 23  1  0  0  0  0
 23 24  2  0  0  0  0
 23 25  1  0  0  0  0
 23 26  1  0  0  0  0
 28 27  2  0  0  0  0
M  END
> <Inchi_key>
NLORYLAYLIXTID-ISLYRVAYSA-N

> <Source>
Mulliner

> <ID>
HT3811

> <H_MFHB>
0

> <CAS>


> <Cholestasis>


> <Name>


> <Class>
0


$$$$