

  -INDIGO-08031709442D

 94109  0  0  0  0  0  0  0  0999 V2000
   -1.6712    6.5678    0.0000 O   0  0  0  0  0  0  0  0  0  0  0  0
   -3.0435    7.1735    0.0000 C   0  0  0  0  0  0  0  0  0  0  0  0
   -3.8121    5.8852    0.0000 N   0  0  0  0  0  0  0  0  0  0  0  0
   -5.3122    5.9067    0.0000 C   0  0  0  0  0  0  0  0  0  0  0  0
   -6.0433    7.2160    0.0000 O   0  0  0  0  0  0  0  0  0  0  0  0
   -6.0803    4.6184    0.0000 C   0  0  0  0  0  0  0  0  0  0  0  0
   -7.5804    4.6396    0.0000 C   0  0  0  0  0  0  0  0  0  0  0  0
   -8.3400    3.3191    0.0000 C   0  0  0  0  0  0  0  0  0  0  0  0
   -7.6125    2.0496    0.0000 C   0  0  0  0  0  0  0  0  0  0  0  0
   -6.1173    2.0205    0.0000 N   0  0  0  0  0  0  0  0  0  0  0  0
   -5.3492    3.3087    0.0000 C   0  0  0  0  0  0  0  0  0  0  0  0
   -5.3892    0.7090    0.0000 C   0  0  0  0  0  0  0  0  0  0  0  0
   -8.3530    0.7831    0.0000 C   0  0  0  0  0  0  0  0  0  0  0  0
   -9.8188    0.7897    0.0000 C   0  0  0  0  0  0  0  0  0  0  0  0
  -10.5437    2.0669    0.0000 C   0  0  0  0  0  0  0  0  0  0  0  0
   -9.8050    3.3350    0.0000 C   0  0  0  0  0  0  0  0  0  0  0  0
  -10.5317    4.6042    0.0000 C   0  0  0  0  0  0  0  0  0  0  0  0
  -11.9939    4.6198    0.0000 C   0  0  0  0  0  0  0  0  0  0  0  0
  -12.7380    3.3517    0.0000 C   0  0  0  0  0  0  0  0  0  0  0  0
  -12.0118    2.0724    0.0000 C   0  0  0  0  0  0  0  0  0  0  0  0
  -12.4170    0.6190    0.0000 N   0  0  0  0  0  0  0  0  0  0  0  0
  -10.8113   -0.3313    0.0000 C   0  0  0  0  0  0  0  0  0  0  0  0
   -4.5419    7.2472    0.0000 C   0  0  0  0  0  0  0  0  0  0  0  0
   -2.8917    8.6657    0.0000 C   0  0  0  0  0  0  0  0  0  0  0  0
   -4.0098    9.6658    0.0000 O   0  0  0  0  0  0  0  0  0  0  0  0
   -1.4254    8.9822    0.0000 N   0  0  0  0  0  0  0  0  0  0  0  0
   -0.6711    7.6856    0.0000 C   0  0  0  0  0  0  0  0  0  0  0  0
   -0.0807    6.3070    0.0000 O   0  0  0  0  0  0  0  0  0  0  0  0
    1.4087    6.1287    0.0000 C   0  0  0  0  0  0  0  0  0  0  0  0
    2.3073    7.3296    0.0000 O   0  0  0  0  0  0  0  0  0  0  0  0
    1.9992    4.7500    0.0000 C   0  0  0  0  0  0  0  0  0  0  0  0
    1.1002    3.5491    0.0000 O   0  0  0  0  0  0  0  0  0  0  0  0
    3.4886    4.5720    0.0000 C   0  0  0  0  0  0  0  0  0  0  0  0
    4.3876    5.7727    0.0000 O   0  0  0  0  0  0  0  0  0  0  0  0
    4.0790    3.1931    0.0000 C   0  0  0  0  0  0  0  0  0  0  0  0
    3.1800    1.9924    0.0000 O   0  0  0  0  0  0  0  0  0  0  0  0
    3.7709    0.6135    0.0000 C   0  0  0  0  0  0  0  0  0  0  0  0
    4.7514    1.7486    0.0000 O   0  0  0  0  0  0  0  0  0  0  0  0
    6.1340    1.1668    0.0000 C   0  0  0  0  0  0  0  0  0  0  0  0
    7.6327    1.2240    0.0000 N   0  0  0  0  0  0  0  0  0  0  0  0
    8.3327    2.5507    0.0000 C   0  0  0  0  0  0  0  0  0  0  0  0
    7.5339    3.8202    0.0000 O   0  0  0  0  0  0  0  0  0  0  0  0
    9.8315    2.6082    0.0000 C   0  0  0  0  0  0  0  0  0  0  0  0
   10.5315    3.9348    0.0000 C   0  0  0  0  0  0  0  0  0  0  0  0
   12.0547    3.9688    0.0000 C   0  0  0  0  0  0  0  0  0  0  0  0
   12.8202    2.7217    0.0000 C   0  0  0  0  0  0  0  0  0  0  0  0
   12.1295    1.3958    0.0000 N   0  0  0  0  0  0  0  0  0  0  0  0
   10.6308    1.3386    0.0000 C   0  0  0  0  0  0  0  0  0  0  0  0
   12.9319    0.1283    0.0000 C   0  0  0  0  0  0  0  0  0  0  0  0
   14.2869    2.7650    0.0000 C   0  0  0  0  0  0  0  0  0  0  0  0
   14.9833    4.0547    0.0000 C   0  0  0  0  0  0  0  0  0  0  0  0
   14.2099    5.3027    0.0000 C   0  0  0  0  0  0  0  0  0  0  0  0
   12.7431    5.2622    0.0000 C   0  0  0  0  0  0  0  0  0  0  0  0
   11.9768    6.5082    0.0000 C   0  0  0  0  0  0  0  0  0  0  0  0
   12.6639    7.7992    0.0000 C   0  0  0  0  0  0  0  0  0  0  0  0
   14.1337    7.8446    0.0000 C   0  0  0  0  0  0  0  0  0  0  0  0
   14.9085    6.5941    0.0000 C   0  0  0  0  0  0  0  0  0  0  0  0
   16.3783    6.2533    0.0000 N   0  0  0  0  0  0  0  0  0  0  0  0
   16.4429    4.3885    0.0000 C   0  0  0  0  0  0  0  0  0  0  0  0
    6.7872    2.5174    0.0000 C   0  0  0  0  0  0  0  0  0  0  0  0
    6.0080   -0.3278    0.0000 C   0  0  0  0  0  0  0  0  0  0  0  0
    7.1429   -1.3082    0.0000 O   0  0  0  0  0  0  0  0  0  0  0  0
    4.5475   -0.6699    0.0000 N   0  0  0  0  0  0  0  0  0  0  0  0
    3.8243   -1.9842    0.0000 C   0  0  0  0  0  0  0  0  0  0  0  0
    4.6009   -3.2676    0.0000 C   0  0  0  0  0  0  0  0  0  0  0  0
    3.8782   -4.5818    0.0000 C   0  0  0  0  0  0  0  0  0  0  0  0
    2.3785   -4.6126    0.0000 C   0  0  0  0  0  0  0  0  0  0  0  0
    1.6554   -5.9268    0.0000 C   0  0  0  0  0  0  0  0  0  0  0  0
    2.4324   -7.2102    0.0000 C   0  0  0  0  0  0  0  0  0  0  0  0
    3.9316   -7.1790    0.0000 C   0  0  0  0  0  0  0  0  0  0  0  0
    4.6548   -5.8648    0.0000 C   0  0  0  0  0  0  0  0  0  0  0  0
    2.3247   -2.0150    0.0000 C   0  0  0  0  0  0  0  0  0  0  0  0
    1.6020   -3.3295    0.0000 O   0  0  0  0  0  0  0  0  0  0  0  0
    1.5481   -0.7319    0.0000 N   0  0  0  0  0  0  0  0  0  0  0  0
    2.2712    0.5823    0.0000 C   0  0  0  0  0  0  0  0  0  0  0  0
    1.2444    1.6763    0.0000 C   0  0  0  0  0  0  0  0  0  0  0  0
   -0.1128    1.0377    0.0000 C   0  0  0  0  0  0  0  0  0  0  0  0
    0.0747   -0.4504    0.0000 C   0  0  0  0  0  0  0  0  0  0  0  0
    5.5685    3.0151    0.0000 O   0  0  0  0  0  0  0  0  0  0  0  0
    0.8285    7.6905    0.0000 C   0  0  0  0  0  0  0  0  0  0  0  0
    1.5744    8.9919    0.0000 N   0  0  0  0  0  0  0  0  0  0  0  0
    3.0429    8.6847    0.0000 C   0  0  0  0  0  0  0  0  0  0  0  0
    3.2045    7.1935    0.0000 C   0  0  0  0  0  0  0  0  0  0  0  0
    1.8358    6.5792    0.0000 C   0  0  0  0  0  0  0  0  0  0  0  0
    0.8201   10.2884    0.0000 C   0  0  0  0  0  0  0  0  0  0  0  0
    1.5659   11.5902    0.0000 O   0  0  0  0  0  0  0  0  0  0  0  0
   -0.6796   10.2839    0.0000 C   0  0  0  0  0  0  0  0  0  0  0  0
   -1.4339   11.5805    0.0000 C   0  0  0  0  0  0  0  0  0  0  0  0
   -0.6880   12.8819    0.0000 C   0  0  0  0  0  0  0  0  0  0  0  0
   -1.4423   14.1784    0.0000 C   0  0  0  0  0  0  0  0  0  0  0  0
   -0.6965   15.4799    0.0000 C   0  0  0  0  0  0  0  0  0  0  0  0
    0.8036   15.4847    0.0000 C   0  0  0  0  0  0  0  0  0  0  0  0
    1.5579   14.1881    0.0000 C   0  0  0  0  0  0  0  0  0  0  0  0
    0.8121   12.8867    0.0000 C   0  0  0  0  0  0  0  0  0  0  0  0
  2  1  1  0  0  0  0
  1 27  1  0  0  0  0
  2  3  1  0  0  0  0
  2 23  1  0  0  0  0
 24  2  1  0  0  0  0
  3  4  1  0  0  0  0
  4  5  2  0  0  0  0
  4  6  1  0  0  0  0
  7  6  1  0  0  0  0
  6 11  1  0  0  0  0
  8  7  2  0  0  0  0
  8  9  1  0  0  0  0
 16  8  1  0  0  0  0
 10  9  1  0  0  0  0
  9 13  1  0  0  0  0
 11 10  1  0  0  0  0
 10 12  1  0  0  0  0
 13 14  1  0  0  0  0
 15 14  1  0  0  0  0
 14 22  2  0  0  0  0
 16 15  2  0  0  0  0
 15 20  1  0  0  0  0
 17 16  1  0  0  0  0
 18 17  2  0  0  0  0
 19 18  1  0  0  0  0
 20 19  2  0  0  0  0
 21 20  1  0  0  0  0
 22 21  1  0  0  0  0
 24 25  2  0  0  0  0
 26 24  1  0  0  0  0
 26 27  1  0  0  0  0
 87 26  1  0  0  0  0
 27 28  1  0  0  0  0
 27 80  1  0  0  0  0
 28 29  1  0  0  0  0
 29 30  2  0  0  0  0
 29 31  1  0  0  0  0
 31 32  1  0  0  0  0
 31 33  1  0  0  0  0
 33 34  1  0  0  0  0
 33 35  1  0  0  0  0
 35 36  1  0  0  0  0
 35 79  2  0  0  0  0
 36 37  1  0  0  0  0
 38 37  1  0  0  0  0
 63 37  1  0  0  0  0
 37 75  1  0  0  0  0
 39 38  1  0  0  0  0
 39 40  1  0  0  0  0
 39 60  1  0  0  0  0
 61 39  1  0  0  0  0
 40 41  1  0  0  0  0
 41 42  2  0  0  0  0
 41 43  1  0  0  0  0
 44 43  1  0  0  0  0
 43 48  1  0  0  0  0
 45 44  2  0  0  0  0
 45 46  1  0  0  0  0
 53 45  1  0  0  0  0
 47 46  1  0  0  0  0
 46 50  1  0  0  0  0
 48 47  1  0  0  0  0
 47 49  1  0  0  0  0
 50 51  1  0  0  0  0
 52 51  1  0  0  0  0
 51 59  2  0  0  0  0
 53 52  2  0  0  0  0
 52 57  1  0  0  0  0
 54 53  1  0  0  0  0
 55 54  2  0  0  0  0
 56 55  1  0  0  0  0
 57 56  2  0  0  0  0
 58 57  1  0  0  0  0
 59 58  1  0  0  0  0
 61 62  2  0  0  0  0
 63 61  1  0  0  0  0
 64 63  1  0  0  0  0
 64 65  1  0  0  0  0
 72 64  1  0  0  0  0
 65 66  1  0  0  0  0
 67 66  2  0  0  0  0
 66 71  1  0  0  0  0
 68 67  1  0  0  0  0
 69 68  2  0  0  0  0
 70 69  1  0  0  0  0
 71 70  2  0  0  0  0
 72 73  2  0  0  0  0
 74 72  1  0  0  0  0
 74 75  1  0  0  0  0
 78 74  1  0  0  0  0
 75 76  1  0  0  0  0
 76 77  1  0  0  0  0
 77 78  1  0  0  0  0
 81 80  1  0  0  0  0
 80 84  1  0  0  0  0
 82 81  1  0  0  0  0
 81 85  1  0  0  0  0
 83 82  1  0  0  0  0
 84 83  1  0  0  0  0
 85 86  2  0  0  0  0
 85 87  1  0  0  0  0
 87 88  1  0  0  0  0
 88 89  1  0  0  0  0
 90 89  2  0  0  0  0
 89 94  1  0  0  0  0
 91 90  1  0  0  0  0
 92 91  2  0  0  0  0
 93 92  1  0  0  0  0
 94 93  2  0  0  0  0
M  END
> <Inchi_key>
NHODVDXSPHJKJD-UHFFFAOYSA-N

> <Source>
Kotsampasakou

> <ID>
EK0192

> <H_MFHB>


> <CAS>


> <Cholestasis>
0

> <Name>
ergotamine l-tartrate

> <Class>
0


$$$$