
  -INDIGO-08031710012D

 13 13  0  0  0  0  0  0  0  0999 V2000
   10.6154   -3.9970    0.0000 O   0  0  0  0  0  0  0  0  0  0  0  0
    9.1154   -3.9970    0.0000 C   0  0  0  0  0  0  0  0  0  0  0  0
    8.3654   -2.6980    0.0000 C   0  0  0  0  0  0  0  0  0  0  0  0
    9.1154   -1.3990    0.0000 O   0  0  0  0  0  0  0  0  0  0  0  0
    6.8655   -2.6980    0.0000 C   0  0  0  0  0  0  0  0  0  0  0  0
    6.1155   -1.3990    0.0000 O   0  0  0  0  0  0  0  0  0  0  0  0
    4.6153   -1.3990    0.0000 C   0  0  0  0  0  0  0  0  0  0  0  0
    3.8653   -2.6980    0.0000 C   0  0  0  0  0  0  0  0  0  0  0  0
    2.3654   -2.6980    0.0000 C   0  0  0  0  0  0  0  0  0  0  0  0
    1.6154   -1.3990    0.0000 C   0  0  0  0  0  0  0  0  0  0  0  0
    0.1154   -1.3990    0.0000 Cl  0  0  0  0  0  0  0  0  0  0  0  0
    2.3654   -0.0999    0.0000 C   0  0  0  0  0  0  0  0  0  0  0  0
    3.8653   -0.0999    0.0000 C   0  0  0  0  0  0  0  0  0  0  0  0
  1  2  1  0  0  0  0
  2  3  1  0  0  0  0
  3  4  1  0  0  0  0
  3  5  1  0  0  0  0
  5  6  1  0  0  0  0
  6  7  1  0  0  0  0
  8  7  2  0  0  0  0
  7 13  1  0  0  0  0
  9  8  1  0  0  0  0
 10  9  2  0  0  0  0
 10 11  1  0  0  0  0
 12 10  1  0  0  0  0
 13 12  2  0  0  0  0
M  END
> <Inchi_key>
MXOAEAUPQDYUQM-UHFFFAOYSA-N

> <Source>
Mulliner

> <ID>
HT0464

> <H_MFHB>
0

> <CAS>


> <Cholestasis>


> <Name>
chlorphenesin

> <Class>
0

$$$$