
     RDKit          3D

 40 42  0  0  0  0  0  0  0  0999 V2000
    7.0257    1.1860   -1.5411 N   0  0  0  0  0  0  0  0  0  0  0  0
    6.7362    0.4186   -0.0168 S   0  0  0  0  0  0  0  0  0  0  0  0
    7.2439    1.3186    1.0745 O   0  0  0  0  0  0  0  0  0  0  0  0
    7.4923   -0.8798    0.0148 O   0  0  0  0  0  0  0  0  0  0  0  0
    5.0146    0.0960    0.2489 C   0  0  0  0  0  0  0  0  0  0  0  0
    4.0705    0.4596   -0.7237 C   0  0  0  0  0  0  0  0  0  0  0  0
    2.7086    0.2086   -0.5221 C   0  0  0  0  0  0  0  0  0  0  0  0
    2.2650   -0.4098    0.6532 C   0  0  0  0  0  0  0  0  0  0  0  0
    0.8688   -0.6785    0.8853 N   0  0  0  0  0  0  0  0  0  0  0  0
   -0.2096   -0.3822   -0.0262 C   0  0  0  0  0  0  0  0  0  0  0  0
   -0.0123    0.2092   -1.1654 N   0  0  0  0  0  0  0  0  0  0  0  0
    1.5475    0.6686   -1.7363 S   0  0  0  0  0  0  0  0  0  0  0  0
    1.5887    2.1561   -1.9440 O   0  0  0  0  0  0  0  0  0  0  0  0
    1.8431   -0.0481   -3.0232 O   0  0  0  0  0  0  0  0  0  0  0  0
   -1.6138   -0.7050    0.3783 C   0  0  0  0  0  0  0  0  0  0  0  0
   -2.2519    0.6277    1.4485 S   0  0  0  0  0  0  0  0  0  0  0  0
   -3.8767   -0.1496    1.7614 C   0  0  0  0  0  0  0  0  0  0  0  0
   -4.7579   -0.0666    0.5446 C   0  0  0  0  0  0  0  0  0  0  0  0
   -5.1735   -1.2349   -0.1167 C   0  0  0  0  0  0  0  0  0  0  0  0
   -5.9920   -1.1508   -1.2474 C   0  0  0  0  0  0  0  0  0  0  0  0
   -6.4048    0.0969   -1.7227 C   0  0  0  0  0  0  0  0  0  0  0  0
   -6.0009    1.2631   -1.0671 C   0  0  0  0  0  0  0  0  0  0  0  0
   -5.1821    1.1837    0.0636 C   0  0  0  0  0  0  0  0  0  0  0  0
    3.2069   -0.7729    1.6266 C   0  0  0  0  0  0  0  0  0  0  0  0
    4.5711   -0.5261    1.4341 C   0  0  0  0  0  0  0  0  0  0  0  0
    5.6889   -1.0132    2.7046 Cl  0  0  0  0  0  0  0  0  0  0  0  0
    6.4759    2.0740   -1.5571 H   0  0  0  0  0  0  0  0  0  0  0  0
    6.6454    0.5610   -2.2866 H   0  0  0  0  0  0  0  0  0  0  0  0
    4.3812    0.9386   -1.6411 H   0  0  0  0  0  0  0  0  0  0  0  0
    0.6088   -1.1287    1.7924 H   0  0  0  0  0  0  0  0  0  0  0  0
   -2.2544   -0.8040   -0.5241 H   0  0  0  0  0  0  0  0  0  0  0  0
   -1.6289   -1.6706    0.9267 H   0  0  0  0  0  0  0  0  0  0  0  0
   -3.7292   -1.2018    2.0870 H   0  0  0  0  0  0  0  0  0  0  0  0
   -4.3689    0.3868    2.5998 H   0  0  0  0  0  0  0  0  0  0  0  0
   -4.8596   -2.2090    0.2374 H   0  0  0  0  0  0  0  0  0  0  0  0
   -6.3061   -2.0534   -1.7556 H   0  0  0  0  0  0  0  0  0  0  0  0
   -7.0383    0.1599   -2.5979 H   0  0  0  0  0  0  0  0  0  0  0  0
   -6.3228    2.2288   -1.4348 H   0  0  0  0  0  0  0  0  0  0  0  0
   -4.8776    2.0947    0.5640 H   0  0  0  0  0  0  0  0  0  0  0  0
    2.8781   -1.2514    2.5410 H   0  0  0  0  0  0  0  0  0  0  0  0
  1  2  1  0
  2  3  2  0
  2  4  2  0
  2  5  1  0
  5  6  2  0
  6  7  1  0
  7  8  2  0
  8  9  1  0
  9 10  1  0
 10 11  2  0
 11 12  1  0
 12  7  1  0
 12 13  2  0
 12 14  2  0
 10 15  1  0
 15 16  1  0
 16 17  1  0
 17 18  1  0
 18 19  2  0
 19 20  1  0
 20 21  2  0
 21 22  1  0
 22 23  2  0
 23 18  1  0
  8 24  1  0
 24 25  2  0
 25  5  1  0
 25 26  1  0
  1 27  1  0
  1 28  1  0
  6 29  1  0
  9 30  1  0
 15 31  1  0
 15 32  1  0
 17 33  1  0
 17 34  1  0
 19 35  1  0
 20 36  1  0
 21 37  1  0
 22 38  1  0
 23 39  1  0
 24 40  1  0
M  END
> <ID>
HT0255

> <Class>
1.0

> <Clusters>
32

> <Fold>
4

$$$$