
     RDKit          3D

 62 64  0  0  0  0  0  0  0  0999 V2000
    0.9317    4.3262    2.1044 C   0  0  0  0  0  0  0  0  0  0  0  0
   -0.1869    3.3019    1.9454 C   0  0  0  0  0  0  0  0  0  0  0  0
    0.3397    1.9803    1.8462 O   0  0  0  0  0  0  0  0  0  0  0  0
    0.9907    1.4865    0.7067 C   0  0  0  0  0  0  0  0  0  0  0  0
    1.1373    2.2155   -0.3174 O   0  0  0  0  0  0  0  0  0  0  0  0
    1.4722    0.0571    0.6953 C   0  0  2  0  0  0  0  0  0  0  0  0
    2.7853   -0.1397   -0.1017 C   0  0  0  0  0  0  0  0  0  0  0  0
    3.9620    0.6515    0.4989 C   0  0  0  0  0  0  0  0  0  0  0  0
    5.2612    0.2826   -0.1749 C   0  0  0  0  0  0  0  0  0  0  0  0
    6.2930   -0.3294    0.5605 C   0  0  0  0  0  0  0  0  0  0  0  0
    7.4798   -0.7072   -0.0746 C   0  0  0  0  0  0  0  0  0  0  0  0
    7.6470   -0.4813   -1.4432 C   0  0  0  0  0  0  0  0  0  0  0  0
    6.6415    0.1529   -2.1736 C   0  0  0  0  0  0  0  0  0  0  0  0
    5.4536    0.5411   -1.5444 C   0  0  0  0  0  0  0  0  0  0  0  0
    0.4116   -0.9001    0.2943 N   0  0  0  0  0  0  0  0  0  0  0  0
   -0.4510   -0.5408   -0.8527 C   0  0  1  0  0  0  0  0  0  0  0  0
    0.2707   -0.6595   -2.2065 C   0  0  0  0  0  0  0  0  0  0  0  0
   -1.6778   -1.4161   -0.8176 C   0  0  0  0  0  0  0  0  0  0  0  0
   -1.6662   -2.5427   -1.3892 O   0  0  0  0  0  0  0  0  0  0  0  0
   -2.8596   -0.9839   -0.1232 N   0  0  0  0  0  0  0  0  0  0  0  0
   -4.1555   -0.8732   -0.7800 C   0  0  1  0  0  0  0  0  0  0  0  0
   -4.7675   -2.2439   -1.0880 C   0  0  0  0  0  0  0  0  0  0  0  0
   -6.1487   -2.2558   -0.4441 C   0  0  0  0  0  0  0  0  0  0  0  0
   -6.0868   -1.2414    0.6832 C   0  0  0  0  0  0  0  0  0  0  0  0
   -5.0770   -0.1863    0.2232 C   0  0  1  0  0  0  0  0  0  0  0  0
   -4.1755    0.3462    1.3464 C   0  0  0  0  0  0  0  0  0  0  0  0
   -2.8279   -0.3663    1.1968 C   0  0  1  0  0  0  0  0  0  0  0  0
   -2.6240   -1.4214    2.2509 C   0  0  0  0  0  0  0  0  0  0  0  0
   -3.4013   -2.4113    2.3139 O   0  0  0  0  0  0  0  0  0  0  0  0
   -1.5710   -1.3313    3.1568 O   0  0  0  0  0  0  0  0  0  0  0  0
    1.5053    4.4211    1.1610 H   0  0  0  0  0  0  0  0  0  0  0  0
    1.6165    4.0217    2.9205 H   0  0  0  0  0  0  0  0  0  0  0  0
    0.5013    5.3122    2.3606 H   0  0  0  0  0  0  0  0  0  0  0  0
   -0.8535    3.3571    2.8377 H   0  0  0  0  0  0  0  0  0  0  0  0
   -0.7933    3.5389    1.0410 H   0  0  0  0  0  0  0  0  0  0  0  0
    1.7144   -0.1888    1.7520 H   0  0  0  0  0  0  0  0  0  0  0  0
    3.0509   -1.2192   -0.1037 H   0  0  0  0  0  0  0  0  0  0  0  0
    2.6494    0.1712   -1.1526 H   0  0  0  0  0  0  0  0  0  0  0  0
    3.7938    1.7441    0.3825 H   0  0  0  0  0  0  0  0  0  0  0  0
    4.0239    0.4352    1.5873 H   0  0  0  0  0  0  0  0  0  0  0  0
    6.1732   -0.5424    1.6153 H   0  0  0  0  0  0  0  0  0  0  0  0
    8.2670   -1.1850    0.4921 H   0  0  0  0  0  0  0  0  0  0  0  0
    8.5575   -0.7979   -1.9381 H   0  0  0  0  0  0  0  0  0  0  0  0
    6.7731    0.3174   -3.2345 H   0  0  0  0  0  0  0  0  0  0  0  0
    4.6739    1.0175   -2.1348 H   0  0  0  0  0  0  0  0  0  0  0  0
    0.8113   -1.8600    0.1670 H   0  0  0  0  0  0  0  0  0  0  0  0
   -0.8161    0.5053   -0.7638 H   0  0  0  0  0  0  0  0  0  0  0  0
    0.8429    0.2651   -2.4141 H   0  0  0  0  0  0  0  0  0  0  0  0
    0.9604   -1.5281   -2.2122 H   0  0  0  0  0  0  0  0  0  0  0  0
   -0.4592   -0.7678   -3.0377 H   0  0  0  0  0  0  0  0  0  0  0  0
   -4.0608   -0.2573   -1.7051 H   0  0  0  0  0  0  0  0  0  0  0  0
   -4.8552   -2.3880   -2.1897 H   0  0  0  0  0  0  0  0  0  0  0  0
   -4.1491   -3.0694   -0.6633 H   0  0  0  0  0  0  0  0  0  0  0  0
   -6.9099   -1.9316   -1.1884 H   0  0  0  0  0  0  0  0  0  0  0  0
   -6.4100   -3.2697   -0.0687 H   0  0  0  0  0  0  0  0  0  0  0  0
   -5.7495   -1.7530    1.6101 H   0  0  0  0  0  0  0  0  0  0  0  0
   -7.0804   -0.7793    0.8675 H   0  0  0  0  0  0  0  0  0  0  0  0
   -5.6270    0.6535   -0.2667 H   0  0  0  0  0  0  0  0  0  0  0  0
   -4.0151    1.4349    1.1826 H   0  0  0  0  0  0  0  0  0  0  0  0
   -4.6279    0.2255    2.3572 H   0  0  0  0  0  0  0  0  0  0  0  0
   -2.0081    0.3784    1.2558 H   0  0  0  0  0  0  0  0  0  0  0  0
   -0.9005   -0.5716    3.1267 H   0  0  0  0  0  0  0  0  0  0  0  0
  1  2  1  0
  2  3  1  0
  3  4  1  0
  4  5  2  0
  6  4  1  0
  6  7  1  0
  7  8  1  0
  8  9  1  0
  9 10  2  0
 10 11  1  0
 11 12  2  0
 12 13  1  0
 13 14  2  0
 14  9  1  0
  6 15  1  0
 15 16  1  0
 16 17  1  0
 16 18  1  0
 18 19  2  0
 18 20  1  0
 20 21  1  0
 21 22  1  0
 22 23  1  0
 23 24  1  0
 24 25  1  0
 25 21  1  0
 25 26  1  0
 26 27  1  0
 27 20  1  0
 27 28  1  0
 28 29  2  0
 28 30  1  0
  1 31  1  0
  1 32  1  0
  1 33  1  0
  2 34  1  0
  2 35  1  0
  6 36  1  1
  7 37  1  0
  7 38  1  0
  8 39  1  0
  8 40  1  0
 10 41  1  0
 11 42  1  0
 12 43  1  0
 13 44  1  0
 14 45  1  0
 15 46  1  0
 16 47  1  1
 17 48  1  0
 17 49  1  0
 17 50  1  0
 21 51  1  6
 22 52  1  0
 22 53  1  0
 23 54  1  0
 23 55  1  0
 24 56  1  0
 24 57  1  0
 25 58  1  6
 26 59  1  0
 26 60  1  0
 27 61  1  6
 30 62  1  0
M  END
> <ID>
HT1798

> <Class>
1.0

> <Clusters>
233

> <Fold>
4

$$$$