
     RDKit          3D

 41 43  0  0  0  0  0  0  0  0999 V2000
   -6.1402   -0.7536    0.6367 N   0  0  0  0  0  0  0  0  0  0  0  0
   -4.7386   -0.5479    1.6277 S   0  0  0  0  0  0  0  0  0  0  0  0
   -4.5511   -1.8017    2.4366 O   0  0  0  0  0  0  0  0  0  0  0  0
   -4.9461    0.6028    2.5717 O   0  0  0  0  0  0  0  0  0  0  0  0
   -3.2993   -0.2485    0.6302 C   0  0  0  0  0  0  0  0  0  0  0  0
   -2.1451   -0.9971    0.9148 C   0  0  0  0  0  0  0  0  0  0  0  0
   -0.9804   -0.8347    0.1636 C   0  0  0  0  0  0  0  0  0  0  0  0
   -0.9423    0.0822   -0.8852 C   0  0  0  0  0  0  0  0  0  0  0  0
    0.2509    0.2469   -1.6666 N   0  0  0  0  0  0  0  0  0  0  0  0
    1.5914   -0.0924   -1.1721 C   0  0  0  0  0  0  0  0  0  0  0  0
    2.0487    0.9206   -0.1016 C   0  0  0  0  0  0  0  0  0  0  0  0
    3.4610    0.6580    0.3642 C   0  0  0  0  0  0  0  0  0  0  0  0
    4.5416    0.8088   -0.5232 C   0  0  0  0  0  0  0  0  0  0  0  0
    5.8496    0.5714   -0.0900 C   0  0  0  0  0  0  0  0  0  0  0  0
    6.0915    0.1914    1.2325 C   0  0  0  0  0  0  0  0  0  0  0  0
    5.0260    0.0545    2.1258 C   0  0  0  0  0  0  0  0  0  0  0  0
    3.7163    0.2912    1.6971 C   0  0  0  0  0  0  0  0  0  0  0  0
    1.6592   -1.4829   -0.6907 N   0  0  0  0  0  0  0  0  0  0  0  0
    0.4257   -1.8259    0.4870 S   0  0  0  0  0  0  0  0  0  0  0  0
    0.0454   -3.2769    0.3922 O   0  0  0  0  0  0  0  0  0  0  0  0
    0.9470   -1.5354    1.8654 O   0  0  0  0  0  0  0  0  0  0  0  0
   -2.0848    0.8307   -1.1883 C   0  0  0  0  0  0  0  0  0  0  0  0
   -3.2659    0.7076   -0.4262 C   0  0  0  0  0  0  0  0  0  0  0  0
   -4.4716    1.5440   -0.8191 C   0  0  0  0  0  0  0  0  0  0  0  0
   -5.1078    2.0547    0.2954 F   0  0  0  0  0  0  0  0  0  0  0  0
   -4.1028    2.6212   -1.6074 F   0  0  0  0  0  0  0  0  0  0  0  0
   -5.3563    0.7654   -1.5407 F   0  0  0  0  0  0  0  0  0  0  0  0
   -6.9374   -0.9735    1.2748 H   0  0  0  0  0  0  0  0  0  0  0  0
   -5.9779   -1.6035    0.0514 H   0  0  0  0  0  0  0  0  0  0  0  0
   -2.1480   -1.7215    1.7189 H   0  0  0  0  0  0  0  0  0  0  0  0
    0.1800    0.7113   -2.6006 H   0  0  0  0  0  0  0  0  0  0  0  0
    2.2930   -0.0010   -2.0310 H   0  0  0  0  0  0  0  0  0  0  0  0
    1.3441    0.9105    0.7570 H   0  0  0  0  0  0  0  0  0  0  0  0
    2.0051    1.9451   -0.5312 H   0  0  0  0  0  0  0  0  0  0  0  0
    4.3727    1.1148   -1.5479 H   0  0  0  0  0  0  0  0  0  0  0  0
    6.6764    0.6855   -0.7791 H   0  0  0  0  0  0  0  0  0  0  0  0
    7.1047    0.0089    1.5665 H   0  0  0  0  0  0  0  0  0  0  0  0
    5.2153   -0.2320    3.1522 H   0  0  0  0  0  0  0  0  0  0  0  0
    2.9054    0.1916    2.4067 H   0  0  0  0  0  0  0  0  0  0  0  0
    1.4833   -2.1110   -1.5086 H   0  0  0  0  0  0  0  0  0  0  0  0
   -2.0389    1.5199   -2.0219 H   0  0  0  0  0  0  0  0  0  0  0  0
  1  2  1  0
  2  3  2  0
  2  4  2  0
  2  5  1  0
  5  6  2  0
  6  7  1  0
  7  8  2  0
  8  9  1  0
  9 10  1  0
 10 11  1  0
 11 12  1  0
 12 13  2  0
 13 14  1  0
 14 15  2  0
 15 16  1  0
 16 17  2  0
 17 12  1  0
 10 18  1  0
 18 19  1  0
 19  7  1  0
 19 20  2  0
 19 21  2  0
  8 22  1  0
 22 23  2  0
 23  5  1  0
 23 24  1  0
 24 25  1  0
 24 26  1  0
 24 27  1  0
  1 28  1  0
  1 29  1  0
  6 30  1  0
  9 31  1  0
 10 32  1  0
 11 33  1  0
 11 34  1  0
 13 35  1  0
 14 36  1  0
 15 37  1  0
 16 38  1  0
 17 39  1  0
 18 40  1  0
 22 41  1  0
M  END
> <ID>
HT0236

> <Class>
1.0

> <Clusters>
32

> <Fold>
4

$$$$