
     RDKit          3D

 69 71  0  0  0  0  0  0  0  0999 V2000
    3.7018    1.4560    1.8611 C   0  0  0  0  0  0  0  0  0  0  0  0
    4.9142    1.7002    0.9665 C   0  0  0  0  0  0  0  0  0  0  0  0
    5.3947    0.4745    0.4117 O   0  0  0  0  0  0  0  0  0  0  0  0
    4.7411   -0.2986   -0.5668 C   0  0  0  0  0  0  0  0  0  0  0  0
    3.6372    0.2013   -1.2871 C   0  0  0  0  0  0  0  0  0  0  0  0
    2.9696   -0.5982   -2.2250 C   0  0  0  0  0  0  0  0  0  0  0  0
    1.7448   -0.0810   -2.9298 C   0  0  0  0  0  0  0  0  0  0  0  0
    0.5246   -0.3796   -2.1135 C   0  0  0  0  0  0  0  0  0  0  0  0
   -0.2620   -1.2934   -2.4838 O   0  0  0  0  0  0  0  0  0  0  0  0
    0.2653    0.3610   -0.9113 N   0  0  0  0  0  0  0  0  0  0  0  0
   -0.7178   -0.0729    0.0840 C   0  0  1  0  0  0  0  0  0  0  0  0
   -0.0531   -1.0884    1.0453 C   0  0  0  0  0  0  0  0  0  0  0  0
   -0.9636   -1.5820    2.1963 C   0  0  0  0  0  0  0  0  0  0  0  0
   -2.1161   -2.4530    1.6788 C   0  0  0  0  0  0  0  0  0  0  0  0
   -0.1337   -2.3732    3.2156 C   0  0  0  0  0  0  0  0  0  0  0  0
   -1.2946    1.1509    0.7881 C   0  0  0  0  0  0  0  0  0  0  0  0
   -0.5155    1.8597    1.7257 C   0  0  0  0  0  0  0  0  0  0  0  0
   -1.0375    2.9674    2.3960 C   0  0  0  0  0  0  0  0  0  0  0  0
   -2.3365    3.3981    2.1313 C   0  0  0  0  0  0  0  0  0  0  0  0
   -3.1099    2.7364    1.1781 C   0  0  0  0  0  0  0  0  0  0  0  0
   -2.5970    1.6267    0.4906 C   0  0  0  0  0  0  0  0  0  0  0  0
   -3.3840    1.0452   -0.5597 N   0  0  0  0  0  0  0  0  0  0  0  0
   -4.5576    0.2262   -0.2335 C   0  0  0  0  0  0  0  0  0  0  0  0
   -5.7429    0.6557   -1.1025 C   0  0  0  0  0  0  0  0  0  0  0  0
   -5.4182    0.6014   -2.6127 C   0  0  0  0  0  0  0  0  0  0  0  0
   -3.9106    0.5553   -2.9278 C   0  0  0  0  0  0  0  0  0  0  0  0
   -3.0979    1.4134   -1.9529 C   0  0  0  0  0  0  0  0  0  0  0  0
    3.4120   -1.9066   -2.4508 C   0  0  0  0  0  0  0  0  0  0  0  0
    4.5230   -2.4028   -1.7697 C   0  0  0  0  0  0  0  0  0  0  0  0
    5.1995   -1.6113   -0.8249 C   0  0  0  0  0  0  0  0  0  0  0  0
    6.3850   -2.1614   -0.1196 C   0  0  0  0  0  0  0  0  0  0  0  0
    7.3103   -1.3928    0.2552 O   0  0  0  0  0  0  0  0  0  0  0  0
    6.5083   -3.5266    0.1382 O   0  0  0  0  0  0  0  0  0  0  0  0
    3.9764    0.7720    2.6921 H   0  0  0  0  0  0  0  0  0  0  0  0
    2.8702    1.0017    1.2837 H   0  0  0  0  0  0  0  0  0  0  0  0
    3.3516    2.4200    2.2882 H   0  0  0  0  0  0  0  0  0  0  0  0
    4.6779    2.4311    0.1650 H   0  0  0  0  0  0  0  0  0  0  0  0
    5.7222    2.1412    1.5890 H   0  0  0  0  0  0  0  0  0  0  0  0
    3.2839    1.2089   -1.1221 H   0  0  0  0  0  0  0  0  0  0  0  0
    1.6573   -0.5577   -3.9311 H   0  0  0  0  0  0  0  0  0  0  0  0
    1.8195    1.0154   -3.0976 H   0  0  0  0  0  0  0  0  0  0  0  0
    0.9056    1.1508   -0.6701 H   0  0  0  0  0  0  0  0  0  0  0  0
   -1.5340   -0.6108   -0.4401 H   0  0  0  0  0  0  0  0  0  0  0  0
    0.2873   -1.9667    0.4524 H   0  0  0  0  0  0  0  0  0  0  0  0
    0.8666   -0.6342    1.4712 H   0  0  0  0  0  0  0  0  0  0  0  0
   -1.3966   -0.7089    2.7304 H   0  0  0  0  0  0  0  0  0  0  0  0
   -1.7282   -3.3057    1.0813 H   0  0  0  0  0  0  0  0  0  0  0  0
   -2.8009   -1.8526    1.0506 H   0  0  0  0  0  0  0  0  0  0  0  0
   -2.7112   -2.8507    2.5287 H   0  0  0  0  0  0  0  0  0  0  0  0
   -0.7745   -2.7051    4.0600 H   0  0  0  0  0  0  0  0  0  0  0  0
    0.6740   -1.7345    3.6321 H   0  0  0  0  0  0  0  0  0  0  0  0
    0.3248   -3.2667    2.7391 H   0  0  0  0  0  0  0  0  0  0  0  0
    0.4991    1.5586    1.9442 H   0  0  0  0  0  0  0  0  0  0  0  0
   -0.4303    3.4954    3.1195 H   0  0  0  0  0  0  0  0  0  0  0  0
   -2.7372    4.2601    2.6487 H   0  0  0  0  0  0  0  0  0  0  0  0
   -4.1040    3.1020    0.9511 H   0  0  0  0  0  0  0  0  0  0  0  0
   -4.8293    0.3341    0.8400 H   0  0  0  0  0  0  0  0  0  0  0  0
   -4.3265   -0.8420   -0.4286 H   0  0  0  0  0  0  0  0  0  0  0  0
   -6.6187    0.0080   -0.8842 H   0  0  0  0  0  0  0  0  0  0  0  0
   -6.0182    1.6972   -0.8256 H   0  0  0  0  0  0  0  0  0  0  0  0
   -5.8639    1.4916   -3.1079 H   0  0  0  0  0  0  0  0  0  0  0  0
   -5.8997   -0.2964   -3.0603 H   0  0  0  0  0  0  0  0  0  0  0  0
   -3.7350    0.9021   -3.9688 H   0  0  0  0  0  0  0  0  0  0  0  0
   -3.5529   -0.4955   -2.8581 H   0  0  0  0  0  0  0  0  0  0  0  0
   -2.0185    1.2716   -2.1706 H   0  0  0  0  0  0  0  0  0  0  0  0
   -3.3452    2.4861   -2.1057 H   0  0  0  0  0  0  0  0  0  0  0  0
    2.9012   -2.5417   -3.1643 H   0  0  0  0  0  0  0  0  0  0  0  0
    4.8622   -3.4038   -2.0011 H   0  0  0  0  0  0  0  0  0  0  0  0
    5.7620   -4.1825   -0.0554 H   0  0  0  0  0  0  0  0  0  0  0  0
  1  2  1  0
  2  3  1  0
  3  4  1  0
  4  5  2  0
  5  6  1  0
  6  7  1  0
  7  8  1  0
  8  9  2  0
  8 10  1  0
 10 11  1  0
 11 12  1  0
 12 13  1  0
 13 14  1  0
 13 15  1  0
 11 16  1  0
 16 17  2  0
 17 18  1  0
 18 19  2  0
 19 20  1  0
 20 21  2  0
 21 16  1  0
 21 22  1  0
 22 23  1  0
 23 24  1  0
 24 25  1  0
 25 26  1  0
 26 27  1  0
 27 22  1  0
  6 28  2  0
 28 29  1  0
 29 30  2  0
 30  4  1  0
 30 31  1  0
 31 32  2  0
 31 33  1  0
  1 34  1  0
  1 35  1  0
  1 36  1  0
  2 37  1  0
  2 38  1  0
  5 39  1  0
  7 40  1  0
  7 41  1  0
 10 42  1  0
 11 43  1  6
 12 44  1  0
 12 45  1  0
 13 46  1  0
 14 47  1  0
 14 48  1  0
 14 49  1  0
 15 50  1  0
 15 51  1  0
 15 52  1  0
 17 53  1  0
 18 54  1  0
 19 55  1  0
 20 56  1  0
 23 57  1  0
 23 58  1  0
 24 59  1  0
 24 60  1  0
 25 61  1  0
 25 62  1  0
 26 63  1  0
 26 64  1  0
 27 65  1  0
 27 66  1  0
 28 67  1  0
 29 68  1  0
 33 69  1  0
M  END
> <ID>
HT1811

> <Class>
1.0

> <Clusters>
94

> <Fold>
4

$$$$