
     RDKit          3D

 45 49  0  0  0  0  0  0  0  0999 V2000
    5.8032   -2.1855   -0.9851 N   0  0  0  0  0  0  0  0  0  0  0  0
    4.6452   -1.3349   -0.7051 C   0  0  2  0  0  0  0  0  0  0  0  0
    4.4943   -0.9216    0.7556 C   0  0  1  0  0  0  0  0  0  0  0  0
    3.6277    0.3025    1.0118 C   0  0  0  0  0  0  0  0  0  0  0  0
    2.2798   -0.0514    0.5893 N   0  0  0  0  0  0  0  0  0  0  0  0
    2.1894   -1.4147    0.0860 C   0  0  0  0  0  0  0  0  0  0  0  0
    3.5903   -2.0010    0.1706 C   0  0  1  0  0  0  0  0  0  0  0  0
    1.1286    0.8184    0.6430 C   0  0  0  0  0  0  0  0  0  0  0  0
   -0.0679    0.3468    0.1975 N   0  0  0  0  0  0  0  0  0  0  0  0
   -1.2106    1.0881    0.1963 C   0  0  0  0  0  0  0  0  0  0  0  0
   -2.3822    0.5544   -0.2736 N   0  0  0  0  0  0  0  0  0  0  0  0
   -3.5387    1.2808   -0.2481 C   0  0  0  0  0  0  0  0  0  0  0  0
   -3.5629    2.5923    0.2503 C   0  0  0  0  0  0  0  0  0  0  0  0
   -4.8435    3.3400    0.2602 C   0  0  0  0  0  0  0  0  0  0  0  0
   -5.6799    3.1575   -0.6640 O   0  0  0  0  0  0  0  0  0  0  0  0
   -5.1647    4.2228    1.2897 O   0  0  0  0  0  0  0  0  0  0  0  0
   -2.3610    3.1673    0.7035 C   0  0  0  0  0  0  0  0  0  0  0  0
   -2.3381    4.3661    1.0980 O   0  0  0  0  0  0  0  0  0  0  0  0
   -1.1779    2.4082    0.6901 C   0  0  0  0  0  0  0  0  0  0  0  0
    0.0428    2.9241    1.1541 C   0  0  0  0  0  0  0  0  0  0  0  0
    1.1966    2.1381    1.1339 C   0  0  0  0  0  0  0  0  0  0  0  0
    2.3525    2.6755    1.5950 F   0  0  0  0  0  0  0  0  0  0  0  0
   -2.4226   -0.7899   -0.7904 C   0  0  0  0  0  0  0  0  0  0  0  0
   -3.1990   -1.7674   -0.1466 C   0  0  0  0  0  0  0  0  0  0  0  0
   -3.2334   -3.0761   -0.6370 C   0  0  0  0  0  0  0  0  0  0  0  0
   -2.4967   -3.4174   -1.7749 C   0  0  0  0  0  0  0  0  0  0  0  0
   -2.5306   -4.6873   -2.2485 F   0  0  0  0  0  0  0  0  0  0  0  0
   -1.7278   -2.4487   -2.4266 C   0  0  0  0  0  0  0  0  0  0  0  0
   -1.6908   -1.1376   -1.9408 C   0  0  0  0  0  0  0  0  0  0  0  0
   -0.9557   -0.2040   -2.5959 F   0  0  0  0  0  0  0  0  0  0  0  0
    6.6065   -1.5509   -1.1946 H   0  0  0  0  0  0  0  0  0  0  0  0
    6.0763   -2.7500   -0.1471 H   0  0  0  0  0  0  0  0  0  0  0  0
    4.2944   -0.6409   -1.5000 H   0  0  0  0  0  0  0  0  0  0  0  0
    5.2118   -1.2968    1.5169 H   0  0  0  0  0  0  0  0  0  0  0  0
    3.6358    0.5378    2.0971 H   0  0  0  0  0  0  0  0  0  0  0  0
    4.0079    1.1637    0.4216 H   0  0  0  0  0  0  0  0  0  0  0  0
    1.4964   -2.0066    0.7211 H   0  0  0  0  0  0  0  0  0  0  0  0
    1.8331   -1.4173   -0.9669 H   0  0  0  0  0  0  0  0  0  0  0  0
    3.7739   -3.0159    0.5846 H   0  0  0  0  0  0  0  0  0  0  0  0
   -4.4585    0.8361   -0.6137 H   0  0  0  0  0  0  0  0  0  0  0  0
   -4.5916    4.3133    2.1192 H   0  0  0  0  0  0  0  0  0  0  0  0
    0.1076    3.9350    1.5379 H   0  0  0  0  0  0  0  0  0  0  0  0
   -3.7676   -1.5140    0.7393 H   0  0  0  0  0  0  0  0  0  0  0  0
   -3.8300   -3.8254   -0.1331 H   0  0  0  0  0  0  0  0  0  0  0  0
   -1.1624   -2.7132   -3.3110 H   0  0  0  0  0  0  0  0  0  0  0  0
  2  1  1  0
  2  3  1  0
  3  4  1  0
  4  5  1  0
  5  6  1  0
  7  6  1  0
  7  2  1  0
  7  3  1  0
  5  8  1  0
  8  9  2  0
  9 10  1  0
 10 11  1  0
 11 12  1  0
 12 13  2  0
 13 14  1  0
 14 15  2  0
 14 16  1  0
 13 17  1  0
 17 18  2  0
 17 19  1  0
 19 10  2  0
 19 20  1  0
 20 21  2  0
 21  8  1  0
 21 22  1  0
 11 23  1  0
 23 24  2  0
 24 25  1  0
 25 26  2  0
 26 27  1  0
 26 28  1  0
 28 29  2  0
 29 23  1  0
 29 30  1  0
  1 31  1  0
  1 32  1  0
  2 33  1  6
  3 34  1  1
  4 35  1  0
  4 36  1  0
  6 37  1  0
  6 38  1  0
  7 39  1  1
 12 40  1  0
 16 41  1  0
 20 42  1  0
 24 43  1  0
 25 44  1  0
 28 45  1  0
M  END
> <ID>
HT2143

> <Class>
1.0

> <Clusters>
232

> <Fold>
4

$$$$