
     RDKit          3D

 62 64  0  0  0  0  0  0  0  0999 V2000
   -5.6153   -3.2305    2.1512 C   0  0  0  0  0  0  0  0  0  0  0  0
   -4.5131   -3.8114    1.2799 C   0  0  0  0  0  0  0  0  0  0  0  0
   -3.7879   -2.7545    0.6616 O   0  0  0  0  0  0  0  0  0  0  0  0
   -2.7055   -2.9826   -0.1930 C   0  0  0  0  0  0  0  0  0  0  0  0
   -2.3404   -4.1599   -0.4664 O   0  0  0  0  0  0  0  0  0  0  0  0
   -1.9998   -1.8128   -0.8160 C   0  0  2  0  0  0  0  0  0  0  0  0
   -2.4948   -1.6558   -2.2775 C   0  0  0  0  0  0  0  0  0  0  0  0
   -2.0047   -0.3798   -2.9930 C   0  0  0  0  0  0  0  0  0  0  0  0
   -2.2623    0.8783   -2.2016 C   0  0  0  0  0  0  0  0  0  0  0  0
   -3.5779    1.2923   -1.9305 C   0  0  0  0  0  0  0  0  0  0  0  0
   -3.8118    2.4491   -1.1807 C   0  0  0  0  0  0  0  0  0  0  0  0
   -2.7368    3.2029   -0.7016 C   0  0  0  0  0  0  0  0  0  0  0  0
   -1.4259    2.8036   -0.9750 C   0  0  0  0  0  0  0  0  0  0  0  0
   -1.1876    1.6483   -1.7254 C   0  0  0  0  0  0  0  0  0  0  0  0
   -0.5364   -2.0338   -0.7322 N   0  0  0  0  0  0  0  0  0  0  0  0
    0.0977   -1.2942    0.3794 C   0  0  1  0  0  0  0  0  0  0  0  0
   -0.2831   -1.9086    1.7330 C   0  0  0  0  0  0  0  0  0  0  0  0
    1.6053   -1.3417    0.2255 C   0  0  0  0  0  0  0  0  0  0  0  0
    2.1524   -2.4721    0.0955 O   0  0  0  0  0  0  0  0  0  0  0  0
    2.4257   -0.1471    0.2172 N   0  0  0  0  0  0  0  0  0  0  0  0
    1.9227    1.0943    0.8453 C   0  0  0  0  0  0  0  0  0  0  0  0
    2.9683    2.1742    0.9876 C   0  0  0  0  0  0  0  0  0  0  0  0
    2.7601    3.2256    1.8945 C   0  0  0  0  0  0  0  0  0  0  0  0
    3.6971    4.2564    2.0073 C   0  0  0  0  0  0  0  0  0  0  0  0
    4.8400    4.2542    1.2049 C   0  0  0  0  0  0  0  0  0  0  0  0
    5.0487    3.2214    0.2875 C   0  0  0  0  0  0  0  0  0  0  0  0
    4.1191    2.1750    0.1805 C   0  0  0  0  0  0  0  0  0  0  0  0
    4.3092    1.0848   -0.8298 C   0  0  0  0  0  0  0  0  0  0  0  0
    3.8172   -0.2558   -0.2699 C   0  0  1  0  0  0  0  0  0  0  0  0
    4.7350   -0.7610    0.8191 C   0  0  0  0  0  0  0  0  0  0  0  0
    4.3616   -0.7634    2.0225 O   0  0  0  0  0  0  0  0  0  0  0  0
    6.0099   -1.2224    0.5044 O   0  0  0  0  0  0  0  0  0  0  0  0
   -6.1895   -4.0527    2.6274 H   0  0  0  0  0  0  0  0  0  0  0  0
   -6.3058   -2.6188    1.5329 H   0  0  0  0  0  0  0  0  0  0  0  0
   -5.1733   -2.5920    2.9452 H   0  0  0  0  0  0  0  0  0  0  0  0
   -4.9653   -4.4627    0.5004 H   0  0  0  0  0  0  0  0  0  0  0  0
   -3.8275   -4.4178    1.9110 H   0  0  0  0  0  0  0  0  0  0  0  0
   -2.3081   -0.9048   -0.2513 H   0  0  0  0  0  0  0  0  0  0  0  0
   -3.6075   -1.6478   -2.2830 H   0  0  0  0  0  0  0  0  0  0  0  0
   -2.1748   -2.5390   -2.8730 H   0  0  0  0  0  0  0  0  0  0  0  0
   -0.9259   -0.4751   -3.2373 H   0  0  0  0  0  0  0  0  0  0  0  0
   -2.5303   -0.2960   -3.9687 H   0  0  0  0  0  0  0  0  0  0  0  0
   -4.4199    0.7178   -2.2957 H   0  0  0  0  0  0  0  0  0  0  0  0
   -4.8268    2.7609   -0.9706 H   0  0  0  0  0  0  0  0  0  0  0  0
   -2.9196    4.0973   -0.1203 H   0  0  0  0  0  0  0  0  0  0  0  0
   -0.5941    3.3886   -0.6044 H   0  0  0  0  0  0  0  0  0  0  0  0
   -0.1662    1.3497   -1.9264 H   0  0  0  0  0  0  0  0  0  0  0  0
   -0.0720   -1.7437   -1.6227 H   0  0  0  0  0  0  0  0  0  0  0  0
   -0.2512   -0.2428    0.3678 H   0  0  0  0  0  0  0  0  0  0  0  0
   -1.3596   -1.7440    1.9466 H   0  0  0  0  0  0  0  0  0  0  0  0
    0.2965   -1.4281    2.5503 H   0  0  0  0  0  0  0  0  0  0  0  0
   -0.0772   -3.0006    1.7382 H   0  0  0  0  0  0  0  0  0  0  0  0
    1.5274    0.8469    1.8549 H   0  0  0  0  0  0  0  0  0  0  0  0
    1.1000    1.5149    0.2335 H   0  0  0  0  0  0  0  0  0  0  0  0
    1.8704    3.2479    2.5116 H   0  0  0  0  0  0  0  0  0  0  0  0
    3.5328    5.0616    2.7116 H   0  0  0  0  0  0  0  0  0  0  0  0
    5.5608    5.0573    1.2888 H   0  0  0  0  0  0  0  0  0  0  0  0
    5.9316    3.2386   -0.3390 H   0  0  0  0  0  0  0  0  0  0  0  0
    5.3767    1.0020   -1.1310 H   0  0  0  0  0  0  0  0  0  0  0  0
    3.7210    1.3395   -1.7379 H   0  0  0  0  0  0  0  0  0  0  0  0
    3.8518   -0.9857   -1.1095 H   0  0  0  0  0  0  0  0  0  0  0  0
    6.3387   -1.2443   -0.4534 H   0  0  0  0  0  0  0  0  0  0  0  0
  1  2  1  0
  2  3  1  0
  3  4  1  0
  4  5  2  0
  6  4  1  0
  6  7  1  0
  7  8  1  0
  8  9  1  0
  9 10  2  0
 10 11  1  0
 11 12  2  0
 12 13  1  0
 13 14  2  0
 14  9  1  0
  6 15  1  0
 15 16  1  0
 16 17  1  0
 16 18  1  0
 18 19  2  0
 18 20  1  0
 20 21  1  0
 21 22  1  0
 22 23  2  0
 23 24  1  0
 24 25  2  0
 25 26  1  0
 26 27  2  0
 27 22  1  0
 27 28  1  0
 28 29  1  0
 29 20  1  0
 29 30  1  0
 30 31  2  0
 30 32  1  0
  1 33  1  0
  1 34  1  0
  1 35  1  0
  2 36  1  0
  2 37  1  0
  6 38  1  1
  7 39  1  0
  7 40  1  0
  8 41  1  0
  8 42  1  0
 10 43  1  0
 11 44  1  0
 12 45  1  0
 13 46  1  0
 14 47  1  0
 15 48  1  0
 16 49  1  1
 17 50  1  0
 17 51  1  0
 17 52  1  0
 21 53  1  0
 21 54  1  0
 23 55  1  0
 24 56  1  0
 25 57  1  0
 26 58  1  0
 28 59  1  0
 28 60  1  0
 29 61  1  6
 32 62  1  0
M  END
> <ID>
HT1787

> <Class>
1.0

> <Clusters>
94

> <Fold>
4

$$$$