
     RDKit          3D

 58 59  0  0  0  0  0  0  0  0999 V2000
    4.9757   -3.6147   -0.3609 C   0  0  0  0  0  0  0  0  0  0  0  0
    4.5640   -2.1468   -0.4036 C   0  0  0  0  0  0  0  0  0  0  0  0
    3.0357   -2.0093   -0.4598 C   0  0  0  0  0  0  0  0  0  0  0  0
    2.5779   -0.5356   -0.5043 C   0  0  2  0  0  0  0  0  0  0  0  0
    1.1061   -0.4651   -0.3859 N   0  0  0  0  0  0  0  0  0  0  0  0
    0.6458   -0.4668    1.0148 C   0  0  1  0  0  0  0  0  0  0  0  0
    0.5914    0.9511    1.6050 C   0  0  0  0  0  0  0  0  0  0  0  0
   -0.6898   -1.1528    1.1044 C   0  0  0  0  0  0  0  0  0  0  0  0
   -0.7376   -2.3291    1.5526 O   0  0  0  0  0  0  0  0  0  0  0  0
   -1.9103   -0.5098    0.6911 N   0  0  0  0  0  0  0  0  0  0  0  0
   -2.9886   -0.3238    1.6621 C   0  0  1  0  0  0  0  0  0  0  0  0
   -2.9495    1.0958    2.2432 C   0  0  0  0  0  0  0  0  0  0  0  0
   -4.1412    1.3642    3.1831 C   0  0  0  0  0  0  0  0  0  0  0  0
   -5.4427    0.6699    2.7520 C   0  0  0  0  0  0  0  0  0  0  0  0
   -5.4545    0.3536    1.2590 C   0  0  0  0  0  0  0  0  0  0  0  0
   -4.3038   -0.6177    0.9115 C   0  0  1  0  0  0  0  0  0  0  0  0
   -3.9520   -0.6048   -0.5783 C   0  0  0  0  0  0  0  0  0  0  0  0
   -2.4257   -0.7158   -0.6641 C   0  0  1  0  0  0  0  0  0  0  0  0
   -1.8837    0.2970   -1.6277 C   0  0  0  0  0  0  0  0  0  0  0  0
   -1.8111    0.0220   -2.8430 O   0  0  0  0  0  0  0  0  0  0  0  0
   -1.5505    1.5783   -1.1902 O   0  0  0  0  0  0  0  0  0  0  0  0
    3.0218    0.1228   -1.7923 C   0  0  0  0  0  0  0  0  0  0  0  0
    2.7200   -0.3972   -2.9015 O   0  0  0  0  0  0  0  0  0  0  0  0
    3.7441    1.3171   -1.7435 O   0  0  0  0  0  0  0  0  0  0  0  0
    4.2827    1.9312   -2.9066 C   0  0  0  0  0  0  0  0  0  0  0  0
    4.7571    3.3240   -2.5527 C   0  0  0  0  0  0  0  0  0  0  0  0
    4.5501   -4.1562   -1.2330 H   0  0  0  0  0  0  0  0  0  0  0  0
    4.6152   -4.0869    0.5731 H   0  0  0  0  0  0  0  0  0  0  0  0
    6.0832   -3.6894   -0.3999 H   0  0  0  0  0  0  0  0  0  0  0  0
    4.9556   -1.6350    0.5032 H   0  0  0  0  0  0  0  0  0  0  0  0
    5.0254   -1.6736   -1.2977 H   0  0  0  0  0  0  0  0  0  0  0  0
    2.6109   -2.5036    0.4411 H   0  0  0  0  0  0  0  0  0  0  0  0
    2.6451   -2.5466   -1.3529 H   0  0  0  0  0  0  0  0  0  0  0  0
    3.0594    0.0118    0.3365 H   0  0  0  0  0  0  0  0  0  0  0  0
    0.7565    0.4036   -0.8572 H   0  0  0  0  0  0  0  0  0  0  0  0
    1.3503   -1.0500    1.6520 H   0  0  0  0  0  0  0  0  0  0  0  0
   -0.1529    1.5813    1.0746 H   0  0  0  0  0  0  0  0  0  0  0  0
    0.3280    0.9036    2.6813 H   0  0  0  0  0  0  0  0  0  0  0  0
    1.5860    1.4406    1.5227 H   0  0  0  0  0  0  0  0  0  0  0  0
   -2.8929   -1.0530    2.5022 H   0  0  0  0  0  0  0  0  0  0  0  0
   -2.9617    1.8325    1.4071 H   0  0  0  0  0  0  0  0  0  0  0  0
   -2.0062    1.2433    2.8100 H   0  0  0  0  0  0  0  0  0  0  0  0
   -4.3126    2.4602    3.2388 H   0  0  0  0  0  0  0  0  0  0  0  0
   -3.8823    1.0193    4.2085 H   0  0  0  0  0  0  0  0  0  0  0  0
   -5.5606   -0.2798    3.3121 H   0  0  0  0  0  0  0  0  0  0  0  0
   -6.3024    1.3231    3.0035 H   0  0  0  0  0  0  0  0  0  0  0  0
   -5.3550    1.3062    0.7024 H   0  0  0  0  0  0  0  0  0  0  0  0
   -6.4221   -0.1068    0.9798 H   0  0  0  0  0  0  0  0  0  0  0  0
   -4.6273   -1.6485    1.1774 H   0  0  0  0  0  0  0  0  0  0  0  0
   -4.3086    0.3274   -1.0601 H   0  0  0  0  0  0  0  0  0  0  0  0
   -4.4405   -1.4510   -1.0993 H   0  0  0  0  0  0  0  0  0  0  0  0
   -2.1551   -1.7384   -1.0062 H   0  0  0  0  0  0  0  0  0  0  0  0
   -1.2260    2.2818   -1.8384 H   0  0  0  0  0  0  0  0  0  0  0  0
    3.5047    2.0049   -3.7051 H   0  0  0  0  0  0  0  0  0  0  0  0
    5.1237    1.3244   -3.2899 H   0  0  0  0  0  0  0  0  0  0  0  0
    5.5564    3.2755   -1.7868 H   0  0  0  0  0  0  0  0  0  0  0  0
    5.1593    3.8160   -3.4624 H   0  0  0  0  0  0  0  0  0  0  0  0
    3.9149    3.9257   -2.1656 H   0  0  0  0  0  0  0  0  0  0  0  0
  1  2  1  0
  2  3  1  0
  4  3  1  0
  4  5  1  0
  5  6  1  0
  6  7  1  0
  6  8  1  0
  8  9  2  0
  8 10  1  0
 10 11  1  0
 11 12  1  0
 12 13  1  0
 13 14  1  0
 14 15  1  0
 15 16  1  0
 16 11  1  0
 16 17  1  0
 17 18  1  0
 18 10  1  0
 18 19  1  0
 19 20  2  0
 19 21  1  0
  4 22  1  0
 22 23  2  0
 22 24  1  0
 24 25  1  0
 25 26  1  0
  1 27  1  0
  1 28  1  0
  1 29  1  0
  2 30  1  0
  2 31  1  0
  3 32  1  0
  3 33  1  0
  4 34  1  1
  5 35  1  0
  6 36  1  1
  7 37  1  0
  7 38  1  0
  7 39  1  0
 11 40  1  1
 12 41  1  0
 12 42  1  0
 13 43  1  0
 13 44  1  0
 14 45  1  0
 14 46  1  0
 15 47  1  0
 15 48  1  0
 16 49  1  1
 17 50  1  0
 17 51  1  0
 18 52  1  6
 21 53  1  0
 25 54  1  0
 25 55  1  0
 26 56  1  0
 26 57  1  0
 26 58  1  0
M  END
> <ID>
HT1637

> <Class>
1.0

> <Clusters>
233

> <Fold>
4

$$$$