
     RDKit          3D

 26 26  0  0  0  0  0  0  0  0999 V2000
   -0.2602   -1.1352   -1.3471 O   0  0  0  0  0  0  0  0  0  0  0  0
   -0.6782   -0.3733   -0.2431 C   0  0  0  0  0  0  0  0  0  0  0  0
    0.3132   -0.5244    0.9381 C   0  0  0  0  0  0  0  0  0  0  0  0
    1.6734   -0.1131    0.5831 N   0  0  0  0  0  0  0  0  0  0  0  0
    2.3538    0.9312    1.0844 C   0  0  0  0  0  0  0  0  0  0  0  0
    3.6134    0.9217    0.5299 C   0  0  0  0  0  0  0  0  0  0  0  0
    3.7328   -0.1321   -0.3037 N   0  0  0  0  0  0  0  0  0  0  0  0
    2.5320   -0.7445   -0.2423 C   0  0  0  0  0  0  0  0  0  0  0  0
   -2.3417   -0.9389    0.2904 P   0  0  0  0  0  0  0  0  0  0  0  0
   -2.8450   -0.0595    1.4126 O   0  0  0  0  0  0  0  0  0  0  0  0
   -2.2555   -2.5358    0.8471 O   0  0  0  0  0  0  0  0  0  0  0  0
   -3.4295   -0.8558   -1.0044 O   0  0  0  0  0  0  0  0  0  0  0  0
   -0.7992    1.3767   -0.7739 P   0  0  0  0  0  0  0  0  0  0  0  0
    0.5274    1.8408   -1.3330 O   0  0  0  0  0  0  0  0  0  0  0  0
   -1.9745    1.5148   -1.9835 O   0  0  0  0  0  0  0  0  0  0  0  0
   -1.2367    2.3591    0.5345 O   0  0  0  0  0  0  0  0  0  0  0  0
   -0.2028   -2.0828   -1.0572 H   0  0  0  0  0  0  0  0  0  0  0  0
    0.3395   -1.5826    1.2781 H   0  0  0  0  0  0  0  0  0  0  0  0
   -0.0454    0.0801    1.8003 H   0  0  0  0  0  0  0  0  0  0  0  0
    1.9670    1.6438    1.8013 H   0  0  0  0  0  0  0  0  0  0  0  0
    4.4023    1.6347    0.7279 H   0  0  0  0  0  0  0  0  0  0  0  0
    2.2992   -1.6518   -0.7836 H   0  0  0  0  0  0  0  0  0  0  0  0
   -2.1839   -3.0897    0.0296 H   0  0  0  0  0  0  0  0  0  0  0  0
   -3.0372   -1.4348   -1.7055 H   0  0  0  0  0  0  0  0  0  0  0  0
   -2.0552    2.4881   -2.1476 H   0  0  0  0  0  0  0  0  0  0  0  0
   -0.4089    2.4633    1.0676 H   0  0  0  0  0  0  0  0  0  0  0  0
  1  2  1  0
  2  3  1  0
  3  4  1  0
  4  5  1  0
  5  6  2  0
  6  7  1  0
  7  8  2  0
  8  4  1  0
  2  9  1  0
  9 10  2  0
  9 11  1  0
  9 12  1  0
  2 13  1  0
 13 14  2  0
 13 15  1  0
 13 16  1  0
  1 17  1  0
  3 18  1  0
  3 19  1  0
  5 20  1  0
  6 21  1  0
  8 22  1  0
 11 23  1  0
 12 24  1  0
 15 25  1  0
 16 26  1  0
M  END
> <ID>
HT2218

> <Class>
1.0

> <Clusters>
188

> <Fold>
4

$$$$