
     RDKit          3D

 39 42  0  0  0  0  0  0  0  0999 V2000
    2.1308   -2.6132    2.5351 N   0  0  0  0  0  0  0  0  0  0  0  0
    1.7482   -1.5924    1.6169 C   0  0  0  0  0  0  0  0  0  0  0  0
    2.6777   -1.0650    0.7553 N   0  0  0  0  0  0  0  0  0  0  0  0
    2.3494   -0.0862   -0.1426 C   0  0  0  0  0  0  0  0  0  0  0  0
    3.3276    0.4518   -1.0413 N   0  0  0  0  0  0  0  0  0  0  0  0
    4.6975   -0.0518   -1.0659 C   0  0  0  0  0  0  0  0  0  0  0  0
    5.7445    1.0202   -1.3138 C   0  0  0  0  0  0  0  0  0  0  0  0
    5.5451    0.4610    0.0861 C   0  0  0  0  0  0  0  0  0  0  0  0
    1.0328    0.3609   -0.1485 C   0  0  0  0  0  0  0  0  0  0  0  0
    0.4455    1.2800   -0.9373 N   0  0  0  0  0  0  0  0  0  0  0  0
   -0.8444    1.2697   -0.5012 C   0  0  0  0  0  0  0  0  0  0  0  0
   -1.0626    0.3985    0.5212 N   0  0  0  0  0  0  0  0  0  0  0  0
   -2.3314    0.0425    1.1658 C   0  0  2  0  0  0  0  0  0  0  0  0
   -3.1552   -0.9169    0.2900 C   0  0  0  0  0  0  0  0  0  0  0  0
   -4.5081   -0.2179    0.0501 C   0  0  2  0  0  0  0  0  0  0  0  0
   -4.8398   -0.0421   -1.4392 C   0  0  0  0  0  0  0  0  0  0  0  0
   -3.8625    0.7327   -2.0800 O   0  0  0  0  0  0  0  0  0  0  0  0
   -4.3752    1.0972    0.7406 C   0  0  0  0  0  0  0  0  0  0  0  0
   -3.2058    1.2369    1.3403 C   0  0  0  0  0  0  0  0  0  0  0  0
    0.1344   -0.1692    0.7121 C   0  0  0  0  0  0  0  0  0  0  0  0
    0.4561   -1.1436    1.5968 N   0  0  0  0  0  0  0  0  0  0  0  0
    3.1147   -2.9620    2.5574 H   0  0  0  0  0  0  0  0  0  0  0  0
    1.4308   -3.0210    3.1939 H   0  0  0  0  0  0  0  0  0  0  0  0
    3.0370    1.1527   -1.7602 H   0  0  0  0  0  0  0  0  0  0  0  0
    4.8922   -1.0873   -1.4171 H   0  0  0  0  0  0  0  0  0  0  0  0
    6.6628    0.6548   -1.8198 H   0  0  0  0  0  0  0  0  0  0  0  0
    5.3577    2.0535   -1.4458 H   0  0  0  0  0  0  0  0  0  0  0  0
    6.3445   -0.2369    0.4129 H   0  0  0  0  0  0  0  0  0  0  0  0
    5.0356    1.1594    0.7844 H   0  0  0  0  0  0  0  0  0  0  0  0
   -1.6175    1.8878   -0.9381 H   0  0  0  0  0  0  0  0  0  0  0  0
   -2.1410   -0.4083    2.1649 H   0  0  0  0  0  0  0  0  0  0  0  0
   -2.6293   -1.1464   -0.6636 H   0  0  0  0  0  0  0  0  0  0  0  0
   -3.3142   -1.8775    0.8274 H   0  0  0  0  0  0  0  0  0  0  0  0
   -5.3243   -0.7955    0.5374 H   0  0  0  0  0  0  0  0  0  0  0  0
   -4.9005   -1.0444   -1.9195 H   0  0  0  0  0  0  0  0  0  0  0  0
   -5.8325    0.4521   -1.5369 H   0  0  0  0  0  0  0  0  0  0  0  0
   -4.1399    0.7944   -3.0307 H   0  0  0  0  0  0  0  0  0  0  0  0
   -5.1540    1.8526    0.7700 H   0  0  0  0  0  0  0  0  0  0  0  0
   -2.9266    2.1190    1.9074 H   0  0  0  0  0  0  0  0  0  0  0  0
  1  2  1  0
  2  3  2  0
  3  4  1  0
  4  5  1  0
  5  6  1  0
  6  7  1  0
  7  8  1  0
  8  6  1  0
  4  9  2  0
  9 10  1  0
 10 11  2  0
 11 12  1  0
 13 12  1  0
 13 14  1  0
 14 15  1  0
 15 16  1  0
 16 17  1  0
 15 18  1  0
 18 19  2  0
 19 13  1  0
 12 20  1  0
 20  9  1  0
 20 21  2  0
 21  2  1  0
  1 22  1  0
  1 23  1  0
  5 24  1  0
  6 25  1  0
  7 26  1  0
  7 27  1  0
  8 28  1  0
  8 29  1  0
 11 30  1  0
 13 31  1  1
 14 32  1  0
 14 33  1  0
 15 34  1  1
 16 35  1  0
 16 36  1  0
 17 37  1  0
 18 38  1  0
 19 39  1  0
M  END
> <ID>
HT0042

> <Class>
1.0

> <Clusters>
58

> <Fold>
4

$$$$