
     RDKit          3D

 65 69  0  0  0  0  0  0  0  0999 V2000
    9.5790   -0.4064   -0.6001 C   0  0  0  0  0  0  0  0  0  0  0  0
    8.5166    0.3699   -1.1447 O   0  0  0  0  0  0  0  0  0  0  0  0
    7.2150   -0.1080   -1.3580 C   0  0  0  0  0  0  0  0  0  0  0  0
    6.2641    0.7682   -1.8940 C   0  0  0  0  0  0  0  0  0  0  0  0
    4.9537    0.3404   -2.1247 C   0  0  0  0  0  0  0  0  0  0  0  0
    4.5774   -0.9789   -1.8291 C   0  0  0  0  0  0  0  0  0  0  0  0
    3.1558   -1.4311   -2.0420 C   0  0  0  0  0  0  0  0  0  0  0  0
    2.3351   -1.3184   -0.7516 C   0  0  0  0  0  0  0  0  0  0  0  0
    2.3163    0.0789   -0.2593 N   0  0  0  0  0  0  0  0  0  0  0  0
    1.2557    0.9090   -0.8747 C   0  0  0  0  0  0  0  0  0  0  0  0
   -0.1467    0.6098   -0.3139 C   0  0  0  0  0  0  0  0  0  0  0  0
   -0.1638    0.6894    1.2202 C   0  0  0  0  0  0  0  0  0  0  0  0
    0.9372   -0.2089    1.8019 C   0  0  0  0  0  0  0  0  0  0  0  0
    2.3016    0.1739    1.2149 C   0  0  0  0  0  0  0  0  0  0  0  0
   -1.4771    0.2839    1.7309 N   0  0  0  0  0  0  0  0  0  0  0  0
   -2.6425    1.1053    1.5570 C   0  0  0  0  0  0  0  0  0  0  0  0
   -2.5689    2.3981    1.1417 N   0  0  0  0  0  0  0  0  0  0  0  0
   -3.8591    2.7715    1.0897 C   0  0  0  0  0  0  0  0  0  0  0  0
   -4.3668    4.0081    0.6984 C   0  0  0  0  0  0  0  0  0  0  0  0
   -5.7647    4.1697    0.6903 C   0  0  0  0  0  0  0  0  0  0  0  0
   -6.6103    3.1014    1.0648 C   0  0  0  0  0  0  0  0  0  0  0  0
   -6.0656    1.8635    1.4533 C   0  0  0  0  0  0  0  0  0  0  0  0
   -4.6737    1.7396    1.4575 C   0  0  0  0  0  0  0  0  0  0  0  0
   -3.9170    0.6723    1.7702 N   0  0  0  0  0  0  0  0  0  0  0  0
   -4.3873   -0.6767    2.1028 C   0  0  0  0  0  0  0  0  0  0  0  0
   -4.7318   -1.4337    0.8468 C   0  0  0  0  0  0  0  0  0  0  0  0
   -3.7191   -1.8251   -0.0453 C   0  0  0  0  0  0  0  0  0  0  0  0
   -4.0396   -2.5141   -1.2187 C   0  0  0  0  0  0  0  0  0  0  0  0
   -5.3719   -2.8205   -1.5098 C   0  0  0  0  0  0  0  0  0  0  0  0
   -5.6809   -3.4889   -2.6480 F   0  0  0  0  0  0  0  0  0  0  0  0
   -6.3851   -2.4394   -0.6258 C   0  0  0  0  0  0  0  0  0  0  0  0
   -6.0686   -1.7498    0.5488 C   0  0  0  0  0  0  0  0  0  0  0  0
    5.5247   -1.8572   -1.2814 C   0  0  0  0  0  0  0  0  0  0  0  0
    6.8355   -1.4288   -1.0509 C   0  0  0  0  0  0  0  0  0  0  0  0
    9.7879   -1.2795   -1.2538 H   0  0  0  0  0  0  0  0  0  0  0  0
   10.4924    0.2201   -0.5410 H   0  0  0  0  0  0  0  0  0  0  0  0
    9.3155   -0.7491    0.4228 H   0  0  0  0  0  0  0  0  0  0  0  0
    6.5419    1.7878   -2.1293 H   0  0  0  0  0  0  0  0  0  0  0  0
    4.2316    1.0386   -2.5298 H   0  0  0  0  0  0  0  0  0  0  0  0
    2.6797   -0.8396   -2.8528 H   0  0  0  0  0  0  0  0  0  0  0  0
    3.1508   -2.4904   -2.3801 H   0  0  0  0  0  0  0  0  0  0  0  0
    1.3106   -1.7015   -0.9400 H   0  0  0  0  0  0  0  0  0  0  0  0
    2.7923   -2.0026   -0.0018 H   0  0  0  0  0  0  0  0  0  0  0  0
    1.4922    1.9806   -0.6961 H   0  0  0  0  0  0  0  0  0  0  0  0
    1.2435    0.7728   -1.9766 H   0  0  0  0  0  0  0  0  0  0  0  0
   -0.4898   -0.3932   -0.6445 H   0  0  0  0  0  0  0  0  0  0  0  0
   -0.8590    1.3517   -0.7339 H   0  0  0  0  0  0  0  0  0  0  0  0
    0.0399    1.7372    1.5373 H   0  0  0  0  0  0  0  0  0  0  0  0
    0.9691   -0.0863    2.9063 H   0  0  0  0  0  0  0  0  0  0  0  0
    0.7209   -1.2773    1.5808 H   0  0  0  0  0  0  0  0  0  0  0  0
    2.5504    1.2157    1.5144 H   0  0  0  0  0  0  0  0  0  0  0  0
    3.0934   -0.4709    1.6550 H   0  0  0  0  0  0  0  0  0  0  0  0
   -1.5638   -0.6258    2.2343 H   0  0  0  0  0  0  0  0  0  0  0  0
   -3.7092    4.8162    0.4053 H   0  0  0  0  0  0  0  0  0  0  0  0
   -6.1950    5.1167    0.3912 H   0  0  0  0  0  0  0  0  0  0  0  0
   -7.6841    3.2353    1.0512 H   0  0  0  0  0  0  0  0  0  0  0  0
   -6.7107    1.0439    1.7382 H   0  0  0  0  0  0  0  0  0  0  0  0
   -5.2724   -0.5994    2.7708 H   0  0  0  0  0  0  0  0  0  0  0  0
   -3.6255   -1.2361    2.6815 H   0  0  0  0  0  0  0  0  0  0  0  0
   -2.6826   -1.6004    0.1659 H   0  0  0  0  0  0  0  0  0  0  0  0
   -3.2540   -2.8106   -1.9017 H   0  0  0  0  0  0  0  0  0  0  0  0
   -7.4170   -2.6771   -0.8502 H   0  0  0  0  0  0  0  0  0  0  0  0
   -6.8662   -1.4608    1.2215 H   0  0  0  0  0  0  0  0  0  0  0  0
    5.2464   -2.8736   -1.0304 H   0  0  0  0  0  0  0  0  0  0  0  0
    7.5437   -2.1301   -0.6313 H   0  0  0  0  0  0  0  0  0  0  0  0
  1  2  1  0
  2  3  1  0
  3  4  2  0
  4  5  1  0
  5  6  2  0
  6  7  1  0
  7  8  1  0
  8  9  1  0
  9 10  1  0
 10 11  1  0
 11 12  1  0
 12 13  1  0
 13 14  1  0
 14  9  1  0
 12 15  1  0
 15 16  1  0
 16 17  2  0
 17 18  1  0
 18 19  2  0
 19 20  1  0
 20 21  2  0
 21 22  1  0
 22 23  2  0
 23 18  1  0
 23 24  1  0
 24 16  1  0
 24 25  1  0
 25 26  1  0
 26 27  2  0
 27 28  1  0
 28 29  2  0
 29 30  1  0
 29 31  1  0
 31 32  2  0
 32 26  1  0
  6 33  1  0
 33 34  2  0
 34  3  1  0
  1 35  1  0
  1 36  1  0
  1 37  1  0
  4 38  1  0
  5 39  1  0
  7 40  1  0
  7 41  1  0
  8 42  1  0
  8 43  1  0
 10 44  1  0
 10 45  1  0
 11 46  1  0
 11 47  1  0
 12 48  1  0
 13 49  1  0
 13 50  1  0
 14 51  1  0
 14 52  1  0
 15 53  1  0
 19 54  1  0
 20 55  1  0
 21 56  1  0
 22 57  1  0
 25 58  1  0
 25 59  1  0
 27 60  1  0
 28 61  1  0
 31 62  1  0
 32 63  1  0
 33 64  1  0
 34 65  1  0
M  END
> <ID>
HT0190

> <Class>
1.0

> <Clusters>
182

> <Fold>
4

$$$$