
     RDKit          3D

 44 47  0  0  0  0  0  0  0  0999 V2000
   -6.8814   -2.3344    0.2369 F   0  0  0  0  0  0  0  0  0  0  0  0
   -5.7054   -1.6607    0.2741 C   0  0  0  0  0  0  0  0  0  0  0  0
   -4.8635   -1.7850    1.3794 C   0  0  0  0  0  0  0  0  0  0  0  0
   -3.6508   -1.0912    1.4190 C   0  0  0  0  0  0  0  0  0  0  0  0
   -3.2596   -0.2577    0.3497 C   0  0  0  0  0  0  0  0  0  0  0  0
   -4.1226   -0.1460   -0.7593 C   0  0  0  0  0  0  0  0  0  0  0  0
   -5.3346   -0.8424   -0.7935 C   0  0  0  0  0  0  0  0  0  0  0  0
   -1.9243    0.4825    0.4286 C   0  0  2  0  0  0  0  0  0  0  0  0
   -2.0854    2.0178    0.5017 C   0  0  0  0  0  0  0  0  0  0  0  0
   -2.1166    2.7040   -0.8695 C   0  0  0  0  0  0  0  0  0  0  0  0
   -0.9793    2.3028   -1.7025 N   0  0  0  0  0  0  0  0  0  0  0  0
   -0.9858    0.8568   -1.9549 C   0  0  0  0  0  0  0  0  0  0  0  0
   -0.8986    0.0200   -0.6521 C   0  0  1  0  0  0  0  0  0  0  0  0
    0.5374    0.0153   -0.0829 C   0  0  0  0  0  0  0  0  0  0  0  0
    1.4525   -0.4965   -1.0500 O   0  0  0  0  0  0  0  0  0  0  0  0
    2.8323   -0.6307   -0.8408 C   0  0  0  0  0  0  0  0  0  0  0  0
    3.6225   -1.1474   -1.8947 C   0  0  0  0  0  0  0  0  0  0  0  0
    5.0121   -1.3033   -1.7417 C   0  0  0  0  0  0  0  0  0  0  0  0
    5.5762   -0.9337   -0.5253 C   0  0  0  0  0  0  0  0  0  0  0  0
    6.9009   -0.9918   -0.1377 O   0  0  0  0  0  0  0  0  0  0  0  0
    6.9905   -0.5011    1.2073 C   0  0  0  0  0  0  0  0  0  0  0  0
    5.6455   -0.1586    1.5702 O   0  0  0  0  0  0  0  0  0  0  0  0
    4.8282   -0.4375    0.4918 C   0  0  0  0  0  0  0  0  0  0  0  0
    3.4510   -0.2673    0.3817 C   0  0  0  0  0  0  0  0  0  0  0  0
   -5.1489   -2.4200    2.2083 H   0  0  0  0  0  0  0  0  0  0  0  0
   -3.0179   -1.2087    2.2897 H   0  0  0  0  0  0  0  0  0  0  0  0
   -3.8782    0.4701   -1.6047 H   0  0  0  0  0  0  0  0  0  0  0  0
   -5.9871   -0.7464   -1.6520 H   0  0  0  0  0  0  0  0  0  0  0  0
   -1.4898    0.2108    1.4173 H   0  0  0  0  0  0  0  0  0  0  0  0
   -1.2266    2.4382    1.0710 H   0  0  0  0  0  0  0  0  0  0  0  0
   -3.0053    2.2816    1.0680 H   0  0  0  0  0  0  0  0  0  0  0  0
   -2.0737    3.8037   -0.7142 H   0  0  0  0  0  0  0  0  0  0  0  0
   -3.0700    2.5064   -1.3977 H   0  0  0  0  0  0  0  0  0  0  0  0
   -0.0872    2.5777   -1.2303 H   0  0  0  0  0  0  0  0  0  0  0  0
   -1.8911    0.5832   -2.5318 H   0  0  0  0  0  0  0  0  0  0  0  0
   -0.1374    0.6095   -2.6278 H   0  0  0  0  0  0  0  0  0  0  0  0
   -1.1254   -1.0363   -0.9216 H   0  0  0  0  0  0  0  0  0  0  0  0
    0.8389    1.0418    0.2150 H   0  0  0  0  0  0  0  0  0  0  0  0
    0.5729   -0.6379    0.8165 H   0  0  0  0  0  0  0  0  0  0  0  0
    3.1555   -1.4263   -2.8306 H   0  0  0  0  0  0  0  0  0  0  0  0
    5.6227   -1.6976   -2.5432 H   0  0  0  0  0  0  0  0  0  0  0  0
    7.6385    0.3995    1.2451 H   0  0  0  0  0  0  0  0  0  0  0  0
    7.3786   -1.2942    1.8802 H   0  0  0  0  0  0  0  0  0  0  0  0
    2.8903    0.1311    1.2158 H   0  0  0  0  0  0  0  0  0  0  0  0
  1  2  1  0
  2  3  2  0
  3  4  1  0
  4  5  2  0
  5  6  1  0
  6  7  2  0
  7  2  1  0
  8  5  1  0
  8  9  1  0
  9 10  1  0
 10 11  1  0
 11 12  1  0
 12 13  1  0
 13  8  1  0
 13 14  1  0
 14 15  1  0
 15 16  1  0
 16 17  2  0
 17 18  1  0
 18 19  2  0
 19 20  1  0
 20 21  1  0
 21 22  1  0
 22 23  1  0
 23 19  1  0
 23 24  2  0
 24 16  1  0
  3 25  1  0
  4 26  1  0
  6 27  1  0
  7 28  1  0
  8 29  1  1
  9 30  1  0
  9 31  1  0
 10 32  1  0
 10 33  1  0
 11 34  1  0
 12 35  1  0
 12 36  1  0
 13 37  1  6
 14 38  1  0
 14 39  1  0
 17 40  1  0
 18 41  1  0
 21 42  1  0
 21 43  1  0
 24 44  1  0
M  END
> <ID>
HT1598

> <Class>
1.0

> <Clusters>
182

> <Fold>
4

$$$$