
     RDKit          3D

 41 43  0  0  0  0  0  0  0  0999 V2000
    1.9003   -2.9922    0.4463 C   0  0  0  0  0  0  0  0  0  0  0  0
    2.2256   -1.7954    1.3380 C   0  0  0  0  0  0  0  0  0  0  0  0
    2.4285   -0.5760    0.5281 N   0  0  0  0  0  0  0  0  0  0  0  0
    3.7214   -0.2137    0.2610 C   0  0  0  0  0  0  0  0  0  0  0  0
    4.0270    0.9190   -0.5018 C   0  0  0  0  0  0  0  0  0  0  0  0
    5.4481    1.2527   -0.7662 C   0  0  0  0  0  0  0  0  0  0  0  0
    6.3181    1.0215    0.1150 O   0  0  0  0  0  0  0  0  0  0  0  0
    5.8559    1.7905   -1.9856 O   0  0  0  0  0  0  0  0  0  0  0  0
    2.9777    1.7195   -0.9749 C   0  0  0  0  0  0  0  0  0  0  0  0
    3.2300    2.7817   -1.6092 O   0  0  0  0  0  0  0  0  0  0  0  0
    1.6457    1.3513   -0.7174 C   0  0  0  0  0  0  0  0  0  0  0  0
    0.5790    2.1342   -1.1992 C   0  0  0  0  0  0  0  0  0  0  0  0
   -0.7419    1.7715   -0.9467 C   0  0  0  0  0  0  0  0  0  0  0  0
   -1.7450    2.5659   -1.3974 F   0  0  0  0  0  0  0  0  0  0  0  0
   -1.0264    0.6182   -0.2082 C   0  0  0  0  0  0  0  0  0  0  0  0
    0.0264   -0.1646    0.2864 C   0  0  0  0  0  0  0  0  0  0  0  0
    1.3780    0.1818    0.0440 C   0  0  0  0  0  0  0  0  0  0  0  0
   -2.3892    0.2372    0.0472 N   0  0  0  0  0  0  0  0  0  0  0  0
   -3.2343   -0.1751   -1.0810 C   0  0  0  0  0  0  0  0  0  0  0  0
   -4.6285   -0.5722   -0.5979 C   0  0  0  0  0  0  0  0  0  0  0  0
   -5.0849    0.4072    0.3899 N   0  0  0  0  0  0  0  0  0  0  0  0
   -4.3072    0.3275    1.6399 C   0  0  0  0  0  0  0  0  0  0  0  0
   -2.8203   -0.0352    1.4244 C   0  0  0  0  0  0  0  0  0  0  0  0
    1.7415   -3.8931    1.0753 H   0  0  0  0  0  0  0  0  0  0  0  0
    2.7458   -3.1855   -0.2474 H   0  0  0  0  0  0  0  0  0  0  0  0
    0.9836   -2.8094   -0.1506 H   0  0  0  0  0  0  0  0  0  0  0  0
    3.1410   -2.0442    1.9203 H   0  0  0  0  0  0  0  0  0  0  0  0
    1.4396   -1.6399    2.1061 H   0  0  0  0  0  0  0  0  0  0  0  0
    4.5399   -0.8259    0.6250 H   0  0  0  0  0  0  0  0  0  0  0  0
    5.2244    1.8801   -2.7718 H   0  0  0  0  0  0  0  0  0  0  0  0
    0.7639    3.0347   -1.7724 H   0  0  0  0  0  0  0  0  0  0  0  0
   -0.2389   -1.0496    0.8430 H   0  0  0  0  0  0  0  0  0  0  0  0
   -3.3370    0.6680   -1.7964 H   0  0  0  0  0  0  0  0  0  0  0  0
   -2.7644   -1.0314   -1.6114 H   0  0  0  0  0  0  0  0  0  0  0  0
   -5.3260   -0.5841   -1.4637 H   0  0  0  0  0  0  0  0  0  0  0  0
   -4.6103   -1.5946   -0.1561 H   0  0  0  0  0  0  0  0  0  0  0  0
   -6.0871    0.2031    0.6138 H   0  0  0  0  0  0  0  0  0  0  0  0
   -4.7650   -0.4189    2.3278 H   0  0  0  0  0  0  0  0  0  0  0  0
   -4.3653    1.3164    2.1430 H   0  0  0  0  0  0  0  0  0  0  0  0
   -2.1958    0.5361    2.1465 H   0  0  0  0  0  0  0  0  0  0  0  0
   -2.6740   -1.1172    1.6342 H   0  0  0  0  0  0  0  0  0  0  0  0
  1  2  1  0
  2  3  1  0
  3  4  1  0
  4  5  2  0
  5  6  1  0
  6  7  2  0
  6  8  1  0
  5  9  1  0
  9 10  2  0
  9 11  1  0
 11 12  2  0
 12 13  1  0
 13 14  1  0
 13 15  2  0
 15 16  1  0
 16 17  2  0
 17  3  1  0
 17 11  1  0
 15 18  1  0
 18 19  1  0
 19 20  1  0
 20 21  1  0
 21 22  1  0
 22 23  1  0
 23 18  1  0
  1 24  1  0
  1 25  1  0
  1 26  1  0
  2 27  1  0
  2 28  1  0
  4 29  1  0
  8 30  1  0
 12 31  1  0
 16 32  1  0
 19 33  1  0
 19 34  1  0
 20 35  1  0
 20 36  1  0
 21 37  1  0
 22 38  1  0
 22 39  1  0
 23 40  1  0
 23 41  1  0
M  END
> <ID>
HT1525

> <Class>
1.0

> <Clusters>
184

> <Fold>
4

$$$$