
     RDKit          3D

 52 55  0  0  0  0  0  0  0  0999 V2000
   -1.8721   -1.4477    0.5085 C   0  0  0  0  0  0  0  0  0  0  0  0
   -1.6146   -0.2589   -0.4798 C   0  0  2  0  0  0  0  0  0  0  0  0
   -0.8679   -0.7963   -1.7254 C   0  0  0  0  0  0  0  0  0  0  0  0
    0.5199   -1.2426   -1.3145 C   0  0  0  0  0  0  0  0  0  0  0  0
    0.8797   -2.3779   -1.5824 O   0  0  0  0  0  0  0  0  0  0  0  0
    1.4147   -0.2648   -0.5415 C   0  0  1  0  0  0  0  0  0  0  0  0
    0.6178    0.3551    0.6603 C   0  0  1  0  0  0  0  0  0  0  0  0
    1.4251    1.5004    1.3008 C   0  0  0  0  0  0  0  0  0  0  0  0
    2.7748    0.9932    1.8054 C   0  0  0  0  0  0  0  0  0  0  0  0
    3.5333    0.3369    0.6770 C   0  0  0  0  0  0  0  0  0  0  0  0
    4.7894    0.7348    0.4160 C   0  0  0  0  0  0  0  0  0  0  0  0
    5.5361    0.1755   -0.7090 C   0  0  0  0  0  0  0  0  0  0  0  0
    6.7291    0.5221   -0.9141 O   0  0  0  0  0  0  0  0  0  0  0  0
    4.8778   -0.7634   -1.6122 C   0  0  0  0  0  0  0  0  0  0  0  0
    3.6304   -1.1709   -1.3748 C   0  0  0  0  0  0  0  0  0  0  0  0
    2.8409   -0.7861   -0.1198 C   0  0  2  0  0  0  0  0  0  0  0  0
    2.7746   -2.0379    0.7865 C   0  0  0  0  0  0  0  0  0  0  0  0
   -0.7520    0.8598    0.1421 C   0  0  2  0  0  0  0  0  0  0  0  0
   -1.6819    1.5689    1.1197 C   0  0  0  0  0  0  0  0  0  0  0  0
   -3.0906    1.3927    0.5232 C   0  0  0  0  0  0  0  0  0  0  0  0
   -2.9396    0.5160   -0.7591 C   0  0  1  0  0  0  0  0  0  0  0  0
   -2.7532    1.3663   -1.8700 O   0  0  0  0  0  0  0  0  0  0  0  0
   -4.1281   -0.4030   -1.0614 C   0  0  0  0  0  0  0  0  0  0  0  0
   -4.0349   -1.1954   -1.9874 O   0  0  0  0  0  0  0  0  0  0  0  0
   -5.4212   -0.3611   -0.2928 C   0  0  0  0  0  0  0  0  0  0  0  0
   -5.3033   -1.1418    0.8629 O   0  0  0  0  0  0  0  0  0  0  0  0
   -2.5376   -2.2048    0.0447 H   0  0  0  0  0  0  0  0  0  0  0  0
   -2.3464   -1.1109    1.4525 H   0  0  0  0  0  0  0  0  0  0  0  0
   -0.9418   -1.9888    0.7729 H   0  0  0  0  0  0  0  0  0  0  0  0
   -0.7600   -0.0046   -2.4971 H   0  0  0  0  0  0  0  0  0  0  0  0
   -1.4277   -1.6405   -2.1832 H   0  0  0  0  0  0  0  0  0  0  0  0
    1.6014    0.5699   -1.2568 H   0  0  0  0  0  0  0  0  0  0  0  0
    0.4459   -0.4044    1.4486 H   0  0  0  0  0  0  0  0  0  0  0  0
    0.8667    1.9223    2.1639 H   0  0  0  0  0  0  0  0  0  0  0  0
    1.5870    2.3177    0.5632 H   0  0  0  0  0  0  0  0  0  0  0  0
    2.6162    0.2578    2.6226 H   0  0  0  0  0  0  0  0  0  0  0  0
    3.3367    1.8494    2.2396 H   0  0  0  0  0  0  0  0  0  0  0  0
    5.2629    1.5011    1.0186 H   0  0  0  0  0  0  0  0  0  0  0  0
    5.4032   -1.1217   -2.4890 H   0  0  0  0  0  0  0  0  0  0  0  0
    3.2076   -1.8787   -2.0737 H   0  0  0  0  0  0  0  0  0  0  0  0
    2.1401   -1.8740    1.6796 H   0  0  0  0  0  0  0  0  0  0  0  0
    3.7944   -2.3007    1.1433 H   0  0  0  0  0  0  0  0  0  0  0  0
    2.3820   -2.9229    0.2477 H   0  0  0  0  0  0  0  0  0  0  0  0
   -0.5230    1.6113   -0.6527 H   0  0  0  0  0  0  0  0  0  0  0  0
   -1.4192    2.6459    1.2068 H   0  0  0  0  0  0  0  0  0  0  0  0
   -1.6224    1.0997    2.1264 H   0  0  0  0  0  0  0  0  0  0  0  0
   -3.7224    0.9002    1.2911 H   0  0  0  0  0  0  0  0  0  0  0  0
   -3.5446    2.3807    0.2910 H   0  0  0  0  0  0  0  0  0  0  0  0
   -3.5911    1.8840   -2.0020 H   0  0  0  0  0  0  0  0  0  0  0  0
   -5.6793    0.6883   -0.0305 H   0  0  0  0  0  0  0  0  0  0  0  0
   -6.2444   -0.7593   -0.9277 H   0  0  0  0  0  0  0  0  0  0  0  0
   -6.1683   -1.0569    1.3416 H   0  0  0  0  0  0  0  0  0  0  0  0
  2  1  1  1
  2  3  1  0
  3  4  1  0
  4  5  2  0
  6  4  1  0
  6  7  1  0
  7  8  1  0
  8  9  1  0
  9 10  1  0
 10 11  2  0
 11 12  1  0
 12 13  2  0
 12 14  1  0
 14 15  2  0
 15 16  1  0
 16  6  1  0
 16 10  1  0
 16 17  1  1
  7 18  1  0
 18  2  1  0
 18 19  1  0
 19 20  1  0
 20 21  1  0
 21  2  1  0
 21 22  1  6
 21 23  1  0
 23 24  2  0
 23 25  1  0
 25 26  1  0
  1 27  1  0
  1 28  1  0
  1 29  1  0
  3 30  1  0
  3 31  1  0
  6 32  1  6
  7 33  1  1
  8 34  1  0
  8 35  1  0
  9 36  1  0
  9 37  1  0
 11 38  1  0
 14 39  1  0
 15 40  1  0
 17 41  1  0
 17 42  1  0
 17 43  1  0
 18 44  1  6
 19 45  1  0
 19 46  1  0
 20 47  1  0
 20 48  1  0
 22 49  1  0
 25 50  1  0
 25 51  1  0
 26 52  1  0
M  END
> <ID>
HT1734

> <Class>
1.0

> <Clusters>
202

> <Fold>
4

$$$$