
     RDKit          3D

 50 50  0  0  0  0  0  0  0  0999 V2000
    5.7521   -2.8183   -1.6231 C   0  0  0  0  0  0  0  0  0  0  0  0
    5.7650   -1.7267   -0.5584 C   0  0  0  0  0  0  0  0  0  0  0  0
    4.5869   -0.9267   -0.6381 O   0  0  0  0  0  0  0  0  0  0  0  0
    3.3217   -1.3675   -0.2296 C   0  0  0  0  0  0  0  0  0  0  0  0
    3.1909   -2.5001    0.3125 O   0  0  0  0  0  0  0  0  0  0  0  0
    2.1448   -0.4896   -0.4310 C   0  0  0  0  0  0  0  0  0  0  0  0
    0.9444   -0.8339    0.0781 C   0  0  0  0  0  0  0  0  0  0  0  0
   -0.3164   -0.0282   -0.1388 C   0  0  1  0  0  0  0  0  0  0  0  0
   -1.0947   -0.0487    1.0475 O   0  0  0  0  0  0  0  0  0  0  0  0
   -2.0463   -1.1027    1.0481 C   0  0  0  0  0  0  0  0  0  0  0  0
   -2.1620   -1.6399    2.4891 C   0  0  0  0  0  0  0  0  0  0  0  0
   -3.1005   -2.8408    2.6142 C   0  0  0  0  0  0  0  0  0  0  0  0
   -3.3883   -0.5923    0.4700 C   0  0  0  0  0  0  0  0  0  0  0  0
   -4.0164    0.5426    1.2817 C   0  0  0  0  0  0  0  0  0  0  0  0
   -0.0103    1.4376   -0.4929 C   0  0  2  0  0  0  0  0  0  0  0  0
   -1.2408    2.0993   -0.9409 N   0  0  0  0  0  0  0  0  0  0  0  0
   -1.8199    3.2242   -0.2652 C   0  0  0  0  0  0  0  0  0  0  0  0
   -1.2456    3.7418    0.7307 O   0  0  0  0  0  0  0  0  0  0  0  0
   -3.1060    3.8029   -0.7570 C   0  0  0  0  0  0  0  0  0  0  0  0
    1.0526    1.4943   -1.6026 C   0  0  1  0  0  0  0  0  0  0  0  0
    1.2803    2.8804   -2.0209 N   0  0  0  0  0  0  0  0  0  0  0  0
    2.3603    0.8495   -1.1047 C   0  0  0  0  0  0  0  0  0  0  0  0
    5.6389   -2.3640   -2.6302 H   0  0  0  0  0  0  0  0  0  0  0  0
    4.9148   -3.5249   -1.4470 H   0  0  0  0  0  0  0  0  0  0  0  0
    6.7070   -3.3839   -1.5888 H   0  0  0  0  0  0  0  0  0  0  0  0
    6.6463   -1.0739   -0.7325 H   0  0  0  0  0  0  0  0  0  0  0  0
    5.8609   -2.1738    0.4547 H   0  0  0  0  0  0  0  0  0  0  0  0
    0.8303   -1.7859    0.5826 H   0  0  0  0  0  0  0  0  0  0  0  0
   -0.8501   -0.4732   -1.0130 H   0  0  0  0  0  0  0  0  0  0  0  0
   -1.7115   -1.9670    0.4245 H   0  0  0  0  0  0  0  0  0  0  0  0
   -1.1502   -1.9612    2.8205 H   0  0  0  0  0  0  0  0  0  0  0  0
   -2.4885   -0.8373    3.1840 H   0  0  0  0  0  0  0  0  0  0  0  0
   -3.0207   -3.2653    3.6370 H   0  0  0  0  0  0  0  0  0  0  0  0
   -4.1545   -2.5341    2.4522 H   0  0  0  0  0  0  0  0  0  0  0  0
   -2.8252   -3.6297    1.8823 H   0  0  0  0  0  0  0  0  0  0  0  0
   -3.2141   -0.2233   -0.5633 H   0  0  0  0  0  0  0  0  0  0  0  0
   -4.1138   -1.4286    0.3859 H   0  0  0  0  0  0  0  0  0  0  0  0
   -4.8744    0.9669    0.7191 H   0  0  0  0  0  0  0  0  0  0  0  0
   -3.2801    1.3527    1.4636 H   0  0  0  0  0  0  0  0  0  0  0  0
   -4.3972    0.1646    2.2529 H   0  0  0  0  0  0  0  0  0  0  0  0
    0.3961    1.9426    0.4129 H   0  0  0  0  0  0  0  0  0  0  0  0
   -1.7273    1.7250   -1.7875 H   0  0  0  0  0  0  0  0  0  0  0  0
   -2.9397    4.2893   -1.7412 H   0  0  0  0  0  0  0  0  0  0  0  0
   -3.8593    2.9949   -0.8704 H   0  0  0  0  0  0  0  0  0  0  0  0
   -3.4950    4.5573   -0.0396 H   0  0  0  0  0  0  0  0  0  0  0  0
    0.6847    0.9190   -2.4829 H   0  0  0  0  0  0  0  0  0  0  0  0
    1.6868    3.4239   -1.2246 H   0  0  0  0  0  0  0  0  0  0  0  0
    1.9832    2.8854   -2.7957 H   0  0  0  0  0  0  0  0  0  0  0  0
    2.8567    1.5231   -0.3728 H   0  0  0  0  0  0  0  0  0  0  0  0
    3.0441    0.7243   -1.9721 H   0  0  0  0  0  0  0  0  0  0  0  0
  1  2  1  0
  2  3  1  0
  3  4  1  0
  4  5  2  0
  4  6  1  0
  6  7  2  0
  7  8  1  0
  8  9  1  0
  9 10  1  0
 10 11  1  0
 11 12  1  0
 10 13  1  0
 13 14  1  0
  8 15  1  0
 15 16  1  0
 16 17  1  0
 17 18  2  0
 17 19  1  0
 15 20  1  0
 20 21  1  0
 20 22  1  0
 22  6  1  0
  1 23  1  0
  1 24  1  0
  1 25  1  0
  2 26  1  0
  2 27  1  0
  7 28  1  0
  8 29  1  6
 10 30  1  0
 11 31  1  0
 11 32  1  0
 12 33  1  0
 12 34  1  0
 12 35  1  0
 13 36  1  0
 13 37  1  0
 14 38  1  0
 14 39  1  0
 14 40  1  0
 15 41  1  1
 16 42  1  0
 19 43  1  0
 19 44  1  0
 19 45  1  0
 20 46  1  6
 21 47  1  0
 21 48  1  0
 22 49  1  0
 22 50  1  0
M  END
> <ID>
HT1547

> <Class>
1.0

> <Clusters>
256

> <Fold>
4

$$$$