
     RDKit          3D

 40 41  0  0  0  0  0  0  0  0999 V2000
    5.5317    0.8143   -0.8222 C   0  0  0  0  0  0  0  0  0  0  0  0
    4.9485   -0.3365    0.0159 C   0  0  0  0  0  0  0  0  0  0  0  0
    5.8760   -1.5521   -0.0409 C   0  0  0  0  0  0  0  0  0  0  0  0
    3.6079   -0.7354   -0.4522 N   0  0  0  0  0  0  0  0  0  0  0  0
    2.5693    0.2342   -0.0749 C   0  0  0  0  0  0  0  0  0  0  0  0
    1.1738   -0.3795   -0.2842 C   0  0  2  0  0  0  0  0  0  0  0  0
    0.9759   -0.7315   -1.6315 O   0  0  0  0  0  0  0  0  0  0  0  0
    0.0707    0.5761    0.1896 C   0  0  0  0  0  0  0  0  0  0  0  0
   -1.2030   -0.0354   -0.0006 O   0  0  0  0  0  0  0  0  0  0  0  0
   -2.4340    0.5590    0.3259 C   0  0  0  0  0  0  0  0  0  0  0  0
   -2.5050    1.8478    0.8908 C   0  0  0  0  0  0  0  0  0  0  0  0
   -3.7392    2.4181    1.2071 C   0  0  0  0  0  0  0  0  0  0  0  0
   -4.9214    1.7184    0.9677 C   0  0  0  0  0  0  0  0  0  0  0  0
   -4.8788    0.4351    0.4066 C   0  0  0  0  0  0  0  0  0  0  0  0
   -6.0672   -0.2717    0.1642 C   0  0  0  0  0  0  0  0  0  0  0  0
   -6.0225   -1.5505   -0.3953 C   0  0  0  0  0  0  0  0  0  0  0  0
   -4.7956   -2.1336   -0.7169 C   0  0  0  0  0  0  0  0  0  0  0  0
   -3.6039   -1.4426   -0.4816 C   0  0  0  0  0  0  0  0  0  0  0  0
   -3.6285   -0.1525    0.0819 C   0  0  0  0  0  0  0  0  0  0  0  0
    4.9216    1.7329   -0.7023 H   0  0  0  0  0  0  0  0  0  0  0  0
    6.5625    1.0506   -0.4818 H   0  0  0  0  0  0  0  0  0  0  0  0
    5.5663    0.5401   -1.8983 H   0  0  0  0  0  0  0  0  0  0  0  0
    4.9028   -0.0126    1.0802 H   0  0  0  0  0  0  0  0  0  0  0  0
    6.8798   -1.2914    0.3577 H   0  0  0  0  0  0  0  0  0  0  0  0
    5.4579   -2.3745    0.5780 H   0  0  0  0  0  0  0  0  0  0  0  0
    5.9843   -1.9121   -1.0866 H   0  0  0  0  0  0  0  0  0  0  0  0
    3.6181   -0.8352   -1.4951 H   0  0  0  0  0  0  0  0  0  0  0  0
    2.6726    0.5080    0.9990 H   0  0  0  0  0  0  0  0  0  0  0  0
    2.6631    1.1595   -0.6853 H   0  0  0  0  0  0  0  0  0  0  0  0
    1.1085   -1.3065    0.3268 H   0  0  0  0  0  0  0  0  0  0  0  0
    1.0370    0.1000   -2.1714 H   0  0  0  0  0  0  0  0  0  0  0  0
    0.1198    1.5243   -0.3898 H   0  0  0  0  0  0  0  0  0  0  0  0
    0.2144    0.7990    1.2696 H   0  0  0  0  0  0  0  0  0  0  0  0
   -1.6096    2.4200    1.0907 H   0  0  0  0  0  0  0  0  0  0  0  0
   -3.7791    3.4091    1.6407 H   0  0  0  0  0  0  0  0  0  0  0  0
   -5.8684    2.1801    1.2209 H   0  0  0  0  0  0  0  0  0  0  0  0
   -7.0290    0.1643    0.4071 H   0  0  0  0  0  0  0  0  0  0  0  0
   -6.9418   -2.0913   -0.5802 H   0  0  0  0  0  0  0  0  0  0  0  0
   -4.7676   -3.1250   -1.1504 H   0  0  0  0  0  0  0  0  0  0  0  0
   -2.6679   -1.9212   -0.7418 H   0  0  0  0  0  0  0  0  0  0  0  0
  1  2  1  0
  2  3  1  0
  2  4  1  0
  4  5  1  0
  5  6  1  0
  6  7  1  0
  6  8  1  0
  8  9  1  0
  9 10  1  0
 10 11  2  0
 11 12  1  0
 12 13  2  0
 13 14  1  0
 14 15  2  0
 15 16  1  0
 16 17  2  0
 17 18  1  0
 18 19  2  0
 19 10  1  0
 19 14  1  0
  1 20  1  0
  1 21  1  0
  1 22  1  0
  2 23  1  0
  3 24  1  0
  3 25  1  0
  3 26  1  0
  4 27  1  0
  5 28  1  0
  5 29  1  0
  6 30  1  1
  7 31  1  0
  8 32  1  0
  8 33  1  0
 11 34  1  0
 12 35  1  0
 13 36  1  0
 15 37  1  0
 16 38  1  0
 17 39  1  0
 18 40  1  0
M  END
> <ID>
HT1763

> <Class>
1.0

> <Clusters>
11

> <Fold>
4

$$$$