
     RDKit          3D

 81 84  0  0  0  0  0  0  0  0999 V2000
   -0.0592    3.2219    0.7299 O   0  0  0  0  0  0  0  0  0  0  0  0
   -0.2347    2.0665    0.2545 C   0  0  0  0  0  0  0  0  0  0  0  0
   -1.5157    1.3277    0.5795 C   0  0  0  0  0  0  0  0  0  0  0  0
    0.8635    1.3890   -0.4962 C   0  0  0  0  0  0  0  0  0  0  0  0
    2.0189    2.0973   -0.9023 C   0  0  0  0  0  0  0  0  0  0  0  0
    0.7460    0.0097   -0.8036 C   0  0  0  0  0  0  0  0  0  0  0  0
    3.0503    1.4266   -1.5837 C   0  0  0  0  0  0  0  0  0  0  0  0
    2.1328    3.4641   -0.6361 O   0  0  0  0  0  0  0  0  0  0  0  0
   -0.4801   -0.7647   -0.3636 C   0  0  0  0  0  0  0  0  0  0  0  0
    1.7995   -0.6488   -1.4743 C   0  0  0  0  0  0  0  0  0  0  0  0
    2.9284    0.0688   -1.8758 C   0  0  0  0  0  0  0  0  0  0  0  0
    4.2542    2.1113   -1.9434 N   0  0  0  0  0  0  0  0  0  0  0  0
   -1.7227    0.1364   -0.3688 C   0  0  1  0  0  0  0  0  0  0  0  0
    1.7442   -2.0584   -1.7355 N   0  0  0  0  0  0  0  0  0  0  0  0
    5.3254    2.3250   -1.0135 C   0  0  0  0  0  0  0  0  0  0  0  0
   -2.9858   -0.6463    0.0392 C   0  0  0  0  0  0  0  0  0  0  0  0
    2.1542   -2.9882   -0.6849 C   0  0  0  0  0  0  0  0  0  0  0  0
    1.5785   -2.5327   -3.1077 C   0  0  0  0  0  0  0  0  0  0  0  0
    6.3404    2.9727   -1.3826 O   0  0  0  0  0  0  0  0  0  0  0  0
    5.2682    1.7880    0.3887 C   0  0  0  0  0  0  0  0  0  0  0  0
   -4.2574    0.2435   -0.0436 C   0  0  2  0  0  0  0  0  0  0  0  0
    5.1952    0.3169    0.3588 N   0  0  0  0  0  0  0  0  0  0  0  0
   -4.1173    1.5420    0.8068 C   0  0  1  0  0  0  0  0  0  0  0  0
   -5.5463   -0.6037    0.2927 C   0  0  2  0  0  0  0  0  0  0  0  0
    6.4607   -0.4121    0.6249 C   0  0  0  0  0  0  0  0  0  0  0  0
   -4.2768    1.1905    2.2728 C   0  0  0  0  0  0  0  0  0  0  0  0
   -2.7627    2.1875    0.5190 C   0  0  0  0  0  0  0  0  0  0  0  0
   -5.1472    2.4307    0.4376 O   0  0  0  0  0  0  0  0  0  0  0  0
   -6.5645   -0.6091   -0.7938 N   0  0  0  0  0  0  0  0  0  0  0  0
   -6.2100   -0.2824    1.6259 C   0  0  0  0  0  0  0  0  0  0  0  0
    7.5964    0.0597   -0.3092 C   0  0  0  0  0  0  0  0  0  0  0  0
    6.2021   -1.9040    0.3360 C   0  0  0  0  0  0  0  0  0  0  0  0
    6.8922   -0.2686    2.1017 C   0  0  0  0  0  0  0  0  0  0  0  0
   -3.4540    1.5610    3.1000 O   0  0  0  0  0  0  0  0  0  0  0  0
   -5.5322    0.4959    2.7308 C   0  0  0  0  0  0  0  0  0  0  0  0
   -2.6985    3.3635    0.1866 O   0  0  0  0  0  0  0  0  0  0  0  0
   -7.0737    0.7202   -1.1722 C   0  0  0  0  0  0  0  0  0  0  0  0
   -6.1388   -1.3748   -1.9775 C   0  0  0  0  0  0  0  0  0  0  0  0
   -7.3302   -0.7247    1.8396 O   0  0  0  0  0  0  0  0  0  0  0  0
   -5.2602   -0.4084    3.9069 C   0  0  0  0  0  0  0  0  0  0  0  0
   -5.6818   -0.0869    5.0502 O   0  0  0  0  0  0  0  0  0  0  0  0
   -4.5285   -1.6264    3.7465 N   0  0  0  0  0  0  0  0  0  0  0  0
   -1.4045    0.9456    1.6167 H   0  0  0  0  0  0  0  0  0  0  0  0
    2.9320    4.0137   -0.9243 H   0  0  0  0  0  0  0  0  0  0  0  0
   -0.3050   -1.1712    0.6565 H   0  0  0  0  0  0  0  0  0  0  0  0
   -0.6679   -1.6178   -1.0508 H   0  0  0  0  0  0  0  0  0  0  0  0
    3.7372   -0.4434   -2.3836 H   0  0  0  0  0  0  0  0  0  0  0  0
    4.3788    2.3996   -2.9409 H   0  0  0  0  0  0  0  0  0  0  0  0
   -1.8655    0.5139   -1.4077 H   0  0  0  0  0  0  0  0  0  0  0  0
   -3.1073   -1.5128   -0.6482 H   0  0  0  0  0  0  0  0  0  0  0  0
   -2.8625   -1.0427    1.0691 H   0  0  0  0  0  0  0  0  0  0  0  0
    1.4133   -2.9778    0.1402 H   0  0  0  0  0  0  0  0  0  0  0  0
    3.1469   -2.6912   -0.2844 H   0  0  0  0  0  0  0  0  0  0  0  0
    2.2296   -4.0249   -1.0777 H   0  0  0  0  0  0  0  0  0  0  0  0
    1.1082   -1.7484   -3.7396 H   0  0  0  0  0  0  0  0  0  0  0  0
    2.5697   -2.7967   -3.5339 H   0  0  0  0  0  0  0  0  0  0  0  0
    0.9207   -3.4287   -3.1212 H   0  0  0  0  0  0  0  0  0  0  0  0
    4.3582    2.2001    0.8776 H   0  0  0  0  0  0  0  0  0  0  0  0
    6.1270    2.1622    0.9797 H   0  0  0  0  0  0  0  0  0  0  0  0
   -4.3047    0.5722   -1.1025 H   0  0  0  0  0  0  0  0  0  0  0  0
    4.4660    0.0042    1.0437 H   0  0  0  0  0  0  0  0  0  0  0  0
   -5.2311   -1.6631    0.4349 H   0  0  0  0  0  0  0  0  0  0  0  0
   -5.1173    3.2126    1.0496 H   0  0  0  0  0  0  0  0  0  0  0  0
    8.4929   -0.5896   -0.1935 H   0  0  0  0  0  0  0  0  0  0  0  0
    7.9121    1.0981   -0.0783 H   0  0  0  0  0  0  0  0  0  0  0  0
    7.2669    0.0161   -1.3710 H   0  0  0  0  0  0  0  0  0  0  0  0
    5.4006   -2.2972    0.9964 H   0  0  0  0  0  0  0  0  0  0  0  0
    7.1197   -2.5090    0.5039 H   0  0  0  0  0  0  0  0  0  0  0  0
    5.8789   -2.0418   -0.7191 H   0  0  0  0  0  0  0  0  0  0  0  0
    7.1914    0.7682    2.3501 H   0  0  0  0  0  0  0  0  0  0  0  0
    7.7625   -0.9253    2.3152 H   0  0  0  0  0  0  0  0  0  0  0  0
    6.0607   -0.5655    2.7762 H   0  0  0  0  0  0  0  0  0  0  0  0
   -6.2325    1.2974    3.0540 H   0  0  0  0  0  0  0  0  0  0  0  0
   -7.3787    1.2944   -0.2733 H   0  0  0  0  0  0  0  0  0  0  0  0
   -7.9838    0.6056   -1.7990 H   0  0  0  0  0  0  0  0  0  0  0  0
   -6.3257    1.2985   -1.7541 H   0  0  0  0  0  0  0  0  0  0  0  0
   -5.2871   -0.8908   -2.4979 H   0  0  0  0  0  0  0  0  0  0  0  0
   -5.8491   -2.4055   -1.6842 H   0  0  0  0  0  0  0  0  0  0  0  0
   -6.9840   -1.4650   -2.6924 H   0  0  0  0  0  0  0  0  0  0  0  0
   -4.1716   -1.9218    2.8134 H   0  0  0  0  0  0  0  0  0  0  0  0
   -4.3681   -2.2485    4.5671 H   0  0  0  0  0  0  0  0  0  0  0  0
  1  2  2  0
  2  3  1  0
  4  2  1  0
  5  4  2  0
  4  6  1  0
  7  5  1  0
  5  8  1  0
  9  6  1  0
  6 10  2  0
 11  7  2  0
  7 12  1  0
 13  9  1  0
 10 11  1  0
 10 14  1  0
 12 15  1  0
  3 13  1  0
 13 16  1  0
 14 17  1  0
 14 18  1  0
 15 19  2  0
 15 20  1  0
 21 16  1  0
 20 22  1  0
 23 21  1  0
 24 21  1  0
 22 25  1  0
 23 26  1  0
 27 23  1  0
 23 28  1  6
 24 29  1  0
 30 24  1  0
 25 31  1  0
 25 32  1  0
 25 33  1  0
 34 26  2  0
 26 35  1  0
  3 27  1  0
 27 36  2  0
 37 29  1  0
 29 38  1  0
 35 30  1  0
 30 39  2  0
 35 40  1  0
 40 41  2  0
 40 42  1  0
  3 43  1  0
  8 44  1  0
  9 45  1  0
  9 46  1  0
 11 47  1  0
 12 48  1  0
 13 49  1  6
 16 50  1  0
 16 51  1  0
 17 52  1  0
 17 53  1  0
 17 54  1  0
 18 55  1  0
 18 56  1  0
 18 57  1  0
 20 58  1  0
 20 59  1  0
 21 60  1  6
 22 61  1  0
 24 62  1  1
 28 63  1  0
 31 64  1  0
 31 65  1  0
 31 66  1  0
 32 67  1  0
 32 68  1  0
 32 69  1  0
 33 70  1  0
 33 71  1  0
 33 72  1  0
 35 73  1  0
 37 74  1  0
 37 75  1  0
 37 76  1  0
 38 77  1  0
 38 78  1  0
 38 79  1  0
 42 80  1  0
 42 81  1  0
M  END
> <ID>
HT2060

> <Class>
1.0

> <Clusters>
225

> <Fold>
4

$$$$