
     RDKit          3D

 64 66  0  0  0  0  0  0  0  0999 V2000
   -4.4167    0.2075    3.3886 O   0  0  0  0  0  0  0  0  0  0  0  0
   -3.9496    0.8871    2.4342 C   0  0  0  0  0  0  0  0  0  0  0  0
   -2.4653    0.8596    2.1556 C   0  0  0  0  0  0  0  0  0  0  0  0
   -4.8030    1.6189    1.6010 O   0  0  0  0  0  0  0  0  0  0  0  0
   -6.2156    1.6213    1.7608 C   0  0  0  0  0  0  0  0  0  0  0  0
   -2.1163   -0.1849    1.0560 C   0  0  0  0  0  0  0  0  0  0  0  0
   -1.8908    2.2234    1.8314 C   0  0  0  0  0  0  0  0  0  0  0  0
   -0.6907   -0.0384    0.5446 C   0  0  0  0  0  0  0  0  0  0  0  0
   -3.0851   -0.1758   -0.1217 C   0  0  0  0  0  0  0  0  0  0  0  0
   -0.7809    2.3051    1.1615 N   0  0  0  0  0  0  0  0  0  0  0  0
   -2.4380    3.4848    2.4353 C   0  0  0  0  0  0  0  0  0  0  0  0
   -0.0871    1.1783    0.6021 C   0  0  0  0  0  0  0  0  0  0  0  0
   -0.0672   -1.2298   -0.0984 C   0  0  0  0  0  0  0  0  0  0  0  0
   -3.1495    0.9161   -1.0067 C   0  0  0  0  0  0  0  0  0  0  0  0
   -3.9473   -1.2688   -0.3268 C   0  0  0  0  0  0  0  0  0  0  0  0
    1.3006    1.4337    0.0856 C   0  0  0  0  0  0  0  0  0  0  0  0
   -0.4947   -2.3836    0.1822 O   0  0  0  0  0  0  0  0  0  0  0  0
    0.9504   -1.0835   -1.0442 O   0  0  0  0  0  0  0  0  0  0  0  0
   -4.0552    0.9140   -2.0676 C   0  0  0  0  0  0  0  0  0  0  0  0
   -4.8658   -1.2755   -1.3935 C   0  0  0  0  0  0  0  0  0  0  0  0
    1.5683   -2.1855   -1.7009 C   0  0  0  0  0  0  0  0  0  0  0  0
   -4.9091   -0.1725   -2.2617 C   0  0  0  0  0  0  0  0  0  0  0  0
   -5.7518   -2.3925   -1.5939 N   0  0  0  0  0  0  0  0  0  0  0  0
    2.6765   -1.6700   -2.6163 C   0  0  0  0  0  0  0  0  0  0  0  0
   -5.7291   -3.3713   -0.8189 O   0  0  0  0  0  0  0  0  0  0  0  0
   -6.6441   -2.3980   -2.6419 O   0  0  0  0  0  0  0  0  0  0  0  0
    3.6546   -0.8823   -1.8352 N   0  0  0  0  0  0  0  0  0  0  0  0
    4.2387    0.1862   -2.6644 C   0  0  0  0  0  0  0  0  0  0  0  0
    4.7181   -1.7433   -1.2731 C   0  0  0  0  0  0  0  0  0  0  0  0
    5.2990   -1.1043   -0.0404 C   0  0  0  0  0  0  0  0  0  0  0  0
    4.4957   -0.9230    1.0979 C   0  0  0  0  0  0  0  0  0  0  0  0
    6.6394   -0.6841   -0.0123 C   0  0  0  0  0  0  0  0  0  0  0  0
    5.0231   -0.3189    2.2431 C   0  0  0  0  0  0  0  0  0  0  0  0
    7.1637   -0.0825    1.1362 C   0  0  0  0  0  0  0  0  0  0  0  0
    6.3558    0.1015    2.2623 C   0  0  0  0  0  0  0  0  0  0  0  0
   -1.9557    0.5370    3.0916 H   0  0  0  0  0  0  0  0  0  0  0  0
   -6.6120    0.5908    1.6409 H   0  0  0  0  0  0  0  0  0  0  0  0
   -6.4838    2.0144    2.7639 H   0  0  0  0  0  0  0  0  0  0  0  0
   -6.6678    2.2729    0.9855 H   0  0  0  0  0  0  0  0  0  0  0  0
   -2.1865   -1.1706    1.5687 H   0  0  0  0  0  0  0  0  0  0  0  0
   -2.8782    4.1145    1.6342 H   0  0  0  0  0  0  0  0  0  0  0  0
   -3.2141    3.2777    3.2001 H   0  0  0  0  0  0  0  0  0  0  0  0
   -1.6196    4.0496    2.9296 H   0  0  0  0  0  0  0  0  0  0  0  0
   -2.5024    1.7720   -0.8798 H   0  0  0  0  0  0  0  0  0  0  0  0
   -3.9079   -2.1121    0.3511 H   0  0  0  0  0  0  0  0  0  0  0  0
    1.3032    1.4241   -1.0244 H   0  0  0  0  0  0  0  0  0  0  0  0
    2.0101    0.6794    0.4834 H   0  0  0  0  0  0  0  0  0  0  0  0
    1.6541    2.4325    0.4182 H   0  0  0  0  0  0  0  0  0  0  0  0
   -4.0963    1.7593   -2.7422 H   0  0  0  0  0  0  0  0  0  0  0  0
    0.8123   -2.7274   -2.3091 H   0  0  0  0  0  0  0  0  0  0  0  0
    1.9860   -2.8864   -0.9472 H   0  0  0  0  0  0  0  0  0  0  0  0
   -5.6035   -0.1492   -3.0910 H   0  0  0  0  0  0  0  0  0  0  0  0
    2.1873   -1.0439   -3.3973 H   0  0  0  0  0  0  0  0  0  0  0  0
    3.1653   -2.5221   -3.1416 H   0  0  0  0  0  0  0  0  0  0  0  0
    3.4462    0.9001   -2.9755 H   0  0  0  0  0  0  0  0  0  0  0  0
    4.7291   -0.2326   -3.5713 H   0  0  0  0  0  0  0  0  0  0  0  0
    4.9854    0.7673   -2.0820 H   0  0  0  0  0  0  0  0  0  0  0  0
    4.3145   -2.7342   -0.9692 H   0  0  0  0  0  0  0  0  0  0  0  0
    5.5070   -1.9491   -2.0329 H   0  0  0  0  0  0  0  0  0  0  0  0
    3.4634   -1.2508    1.0964 H   0  0  0  0  0  0  0  0  0  0  0  0
    7.2753   -0.8153   -0.8790 H   0  0  0  0  0  0  0  0  0  0  0  0
    4.3985   -0.1783    3.1160 H   0  0  0  0  0  0  0  0  0  0  0  0
    8.1959    0.2426    1.1527 H   0  0  0  0  0  0  0  0  0  0  0  0
    6.7629    0.5687    3.1498 H   0  0  0  0  0  0  0  0  0  0  0  0
  1  2  2  0
  2  3  1  0
  4  2  1  0
  5  4  1  0
  3  6  1  0
  7  3  1  0
  6  8  1  0
  6  9  1  0
 10  7  2  0
  7 11  1  0
  8 12  2  0
  8 13  1  0
  9 14  2  0
 15  9  1  0
 12 10  1  0
 12 16  1  0
 13 17  2  0
 13 18  1  0
 14 19  1  0
 20 15  2  0
 18 21  1  0
 19 22  2  0
 22 20  1  0
 20 23  1  0
 21 24  1  0
 23 25  2  0
 23 26  1  0
 24 27  1  0
 27 28  1  0
 27 29  1  0
 29 30  1  0
 30 31  2  0
 32 30  1  0
 31 33  1  0
 34 32  2  0
 33 35  2  0
 35 34  1  0
  3 36  1  0
  5 37  1  0
  5 38  1  0
  5 39  1  0
  6 40  1  0
 11 41  1  0
 11 42  1  0
 11 43  1  0
 14 44  1  0
 15 45  1  0
 16 46  1  0
 16 47  1  0
 16 48  1  0
 19 49  1  0
 21 50  1  0
 21 51  1  0
 22 52  1  0
 24 53  1  0
 24 54  1  0
 28 55  1  0
 28 56  1  0
 28 57  1  0
 29 58  1  0
 29 59  1  0
 31 60  1  0
 32 61  1  0
 33 62  1  0
 34 63  1  0
 35 64  1  0
M  CHG  2  23   1  26  -1
M  END
> <ID>
HT1483

> <Class>
1.0

> <Clusters>
178

> <Fold>
4

$$$$