
     RDKit          3D

 30 31  0  0  0  0  0  0  0  0999 V2000
   -1.1373    2.4753    0.7074 C   0  0  0  0  0  0  0  0  0  0  0  0
   -1.1656    1.8175   -0.6694 C   0  0  0  0  0  0  0  0  0  0  0  0
   -1.3503    0.3238   -0.5641 C   0  0  0  0  0  0  0  0  0  0  0  0
   -2.5845   -0.1848   -0.8220 N   0  0  0  0  0  0  0  0  0  0  0  0
   -2.8415   -1.5130   -0.7296 C   0  0  0  0  0  0  0  0  0  0  0  0
   -4.1499   -2.0075   -1.0049 N   0  0  0  0  0  0  0  0  0  0  0  0
   -1.8524   -2.3702   -0.3755 N   0  0  0  0  0  0  0  0  0  0  0  0
   -0.5944   -1.9325   -0.1089 C   0  0  0  0  0  0  0  0  0  0  0  0
    0.4098   -2.8950    0.2319 N   0  0  0  0  0  0  0  0  0  0  0  0
   -0.3023   -0.5537   -0.1965 C   0  0  0  0  0  0  0  0  0  0  0  0
    1.0615   -0.0530    0.0806 C   0  0  0  0  0  0  0  0  0  0  0  0
    1.8913    0.3612   -0.9725 C   0  0  0  0  0  0  0  0  0  0  0  0
    3.1836    0.8248   -0.7082 C   0  0  0  0  0  0  0  0  0  0  0  0
    3.6571    0.8703    0.6076 C   0  0  0  0  0  0  0  0  0  0  0  0
    5.2786    1.4522    0.9373 Cl  0  0  0  0  0  0  0  0  0  0  0  0
    2.8373    0.4482    1.6597 C   0  0  0  0  0  0  0  0  0  0  0  0
    1.5446   -0.0157    1.3981 C   0  0  0  0  0  0  0  0  0  0  0  0
   -2.0658    2.2343    1.2679 H   0  0  0  0  0  0  0  0  0  0  0  0
   -0.2595    2.1342    1.2920 H   0  0  0  0  0  0  0  0  0  0  0  0
   -1.0704    3.5773    0.5895 H   0  0  0  0  0  0  0  0  0  0  0  0
   -2.0140    2.2528   -1.2415 H   0  0  0  0  0  0  0  0  0  0  0  0
   -0.2411    2.0632   -1.2312 H   0  0  0  0  0  0  0  0  0  0  0  0
   -4.3543   -3.0291   -0.9358 H   0  0  0  0  0  0  0  0  0  0  0  0
   -4.9158   -1.3526   -1.2781 H   0  0  0  0  0  0  0  0  0  0  0  0
    0.1566   -3.9054    0.3035 H   0  0  0  0  0  0  0  0  0  0  0  0
    1.4075   -2.6309    0.3856 H   0  0  0  0  0  0  0  0  0  0  0  0
    1.5370    0.3238   -1.9953 H   0  0  0  0  0  0  0  0  0  0  0  0
    3.8160    1.1461   -1.5260 H   0  0  0  0  0  0  0  0  0  0  0  0
    3.2003    0.4785    2.6791 H   0  0  0  0  0  0  0  0  0  0  0  0
    0.9177   -0.3404    2.2195 H   0  0  0  0  0  0  0  0  0  0  0  0
  1  2  1  0
  2  3  1  0
  3  4  2  0
  4  5  1  0
  5  6  1  0
  5  7  2  0
  7  8  1  0
  8  9  1  0
  8 10  2  0
 10  3  1  0
 10 11  1  0
 11 12  2  0
 12 13  1  0
 13 14  2  0
 14 15  1  0
 14 16  1  0
 16 17  2  0
 17 11  1  0
  1 18  1  0
  1 19  1  0
  1 20  1  0
  2 21  1  0
  2 22  1  0
  6 23  1  0
  6 24  1  0
  9 25  1  0
  9 26  1  0
 12 27  1  0
 13 28  1  0
 16 29  1  0
 17 30  1  0
M  END
> <ID>
HT1780

> <Class>
1.0

> <Clusters>
54

> <Fold>
4

$$$$