
     RDKit          3D

 59 63  0  0  0  0  0  0  0  0999 V2000
   -4.1020    0.3336   -1.5421 C   0  0  0  0  0  0  0  0  0  0  0  0
   -4.0303    0.3789    0.0228 C   0  0  2  0  0  0  0  0  0  0  0  0
   -3.4384    1.7449    0.4587 C   0  0  0  0  0  0  0  0  0  0  0  0
   -1.9503    1.8832    0.0482 C   0  0  0  0  0  0  0  0  0  0  0  0
   -1.0710    0.6828    0.5175 C   0  0  1  0  0  0  0  0  0  0  0  0
   -1.7018   -0.6808    0.1046 C   0  0  1  0  0  0  0  0  0  0  0  0
   -0.8444   -1.8129    0.6816 C   0  0  0  0  0  0  0  0  0  0  0  0
    0.5421   -1.8120    0.0305 C   0  0  0  0  0  0  0  0  0  0  0  0
    1.1376   -0.4310   -0.1477 C   0  0  0  0  0  0  0  0  0  0  0  0
    2.4782   -0.3490   -0.5583 C   0  0  0  0  0  0  0  0  0  0  0  0
    3.1074    0.8960   -0.7216 C   0  0  0  0  0  0  0  0  0  0  0  0
    4.4471    1.0226   -1.1240 O   0  0  0  0  0  0  0  0  0  0  0  0
    5.3347   -0.0650   -1.3991 C   0  0  0  0  0  0  0  0  0  0  0  0
    6.6112    0.4755   -2.0333 C   0  0  0  0  0  0  0  0  0  0  0  0
    7.5993    0.6332   -0.8946 C   0  0  0  0  0  0  0  0  0  0  0  0
    7.2565   -0.4749    0.0837 C   0  0  0  0  0  0  0  0  0  0  0  0
    5.7688   -0.7573   -0.0996 C   0  0  0  0  0  0  0  0  0  0  0  0
    2.3831    2.0599   -0.4694 C   0  0  0  0  0  0  0  0  0  0  0  0
    1.0465    1.9974   -0.0747 C   0  0  0  0  0  0  0  0  0  0  0  0
    0.3860    0.7580    0.0568 C   0  0  0  0  0  0  0  0  0  0  0  0
   -3.1525   -0.7306    0.6246 C   0  0  2  0  0  0  0  0  0  0  0  0
   -3.9612   -2.0087    0.4341 C   0  0  0  0  0  0  0  0  0  0  0  0
   -5.4308   -1.5568    0.5374 C   0  0  0  0  0  0  0  0  0  0  0  0
   -5.4296   -0.0019    0.6000 C   0  0  2  0  0  0  0  0  0  0  0  0
   -6.4709    0.5431   -0.1767 O   0  0  0  0  0  0  0  0  0  0  0  0
   -5.6024    0.4403    2.0065 C   0  0  0  0  0  0  0  0  0  0  0  0
   -5.7453    0.7966    3.1497 C   0  0  0  0  0  0  0  0  0  0  0  0
   -4.7548    1.1502   -1.9174 H   0  0  0  0  0  0  0  0  0  0  0  0
   -3.1228    0.4737   -2.0347 H   0  0  0  0  0  0  0  0  0  0  0  0
   -4.5203   -0.6249   -1.9118 H   0  0  0  0  0  0  0  0  0  0  0  0
   -3.4904    1.8635    1.5621 H   0  0  0  0  0  0  0  0  0  0  0  0
   -4.0265    2.5754    0.0113 H   0  0  0  0  0  0  0  0  0  0  0  0
   -1.8573    2.0199   -1.0492 H   0  0  0  0  0  0  0  0  0  0  0  0
   -1.5894    2.8190    0.5223 H   0  0  0  0  0  0  0  0  0  0  0  0
   -1.0447    0.7317    1.6299 H   0  0  0  0  0  0  0  0  0  0  0  0
   -1.6906   -0.7915   -1.0000 H   0  0  0  0  0  0  0  0  0  0  0  0
   -1.3196   -2.7985    0.4885 H   0  0  0  0  0  0  0  0  0  0  0  0
   -0.7419   -1.6943    1.7833 H   0  0  0  0  0  0  0  0  0  0  0  0
    1.2208   -2.4286    0.6594 H   0  0  0  0  0  0  0  0  0  0  0  0
    0.4751   -2.2951   -0.9688 H   0  0  0  0  0  0  0  0  0  0  0  0
    3.0257   -1.2648   -0.7350 H   0  0  0  0  0  0  0  0  0  0  0  0
    4.8524   -0.7804   -2.1019 H   0  0  0  0  0  0  0  0  0  0  0  0
    7.0076   -0.2657   -2.7626 H   0  0  0  0  0  0  0  0  0  0  0  0
    6.4425    1.4409   -2.5587 H   0  0  0  0  0  0  0  0  0  0  0  0
    8.6485    0.5514   -1.2524 H   0  0  0  0  0  0  0  0  0  0  0  0
    7.4510    1.6223   -0.4070 H   0  0  0  0  0  0  0  0  0  0  0  0
    7.4869   -0.1707    1.1279 H   0  0  0  0  0  0  0  0  0  0  0  0
    7.8446   -1.3855   -0.1669 H   0  0  0  0  0  0  0  0  0  0  0  0
    5.5925   -1.8531   -0.1672 H   0  0  0  0  0  0  0  0  0  0  0  0
    5.2008   -0.3645    0.7722 H   0  0  0  0  0  0  0  0  0  0  0  0
    2.8628    3.0249   -0.5755 H   0  0  0  0  0  0  0  0  0  0  0  0
    0.5455    2.9310    0.1279 H   0  0  0  0  0  0  0  0  0  0  0  0
   -3.0921   -0.5765    1.7299 H   0  0  0  0  0  0  0  0  0  0  0  0
   -3.7193   -2.7545    1.2224 H   0  0  0  0  0  0  0  0  0  0  0  0
   -3.7581   -2.4559   -0.5636 H   0  0  0  0  0  0  0  0  0  0  0  0
   -5.9835   -1.9098   -0.3612 H   0  0  0  0  0  0  0  0  0  0  0  0
   -5.9178   -2.0125    1.4287 H   0  0  0  0  0  0  0  0  0  0  0  0
   -7.3250    0.1485    0.1435 H   0  0  0  0  0  0  0  0  0  0  0  0
   -5.8699    1.1093    4.1528 H   0  0  0  0  0  0  0  0  0  0  0  0
  2  1  1  6
  2  3  1  0
  3  4  1  0
  5  4  1  0
  5  6  1  0
  6  7  1  0
  7  8  1  0
  8  9  1  0
  9 10  2  0
 10 11  1  0
 11 12  1  0
 12 13  1  0
 13 14  1  0
 14 15  1  0
 15 16  1  0
 16 17  1  0
 17 13  1  0
 11 18  2  0
 18 19  1  0
 19 20  2  0
 20  5  1  0
 20  9  1  0
  6 21  1  0
 21  2  1  0
 21 22  1  0
 22 23  1  0
 23 24  1  0
 24  2  1  0
 24 25  1  0
 24 26  1  1
 26 27  3  0
  1 28  1  0
  1 29  1  0
  1 30  1  0
  3 31  1  0
  3 32  1  0
  4 33  1  0
  4 34  1  0
  5 35  1  1
  6 36  1  6
  7 37  1  0
  7 38  1  0
  8 39  1  0
  8 40  1  0
 10 41  1  0
 13 42  1  0
 14 43  1  0
 14 44  1  0
 15 45  1  0
 15 46  1  0
 16 47  1  0
 16 48  1  0
 17 49  1  0
 17 50  1  0
 18 51  1  0
 19 52  1  0
 21 53  1  1
 22 54  1  0
 22 55  1  0
 23 56  1  0
 23 57  1  0
 25 58  1  0
 27 59  1  0
M  END
> <ID>
HT1788

> <Class>
1.0

> <Clusters>
162

> <Fold>
4

$$$$