
     RDKit          3D

 45 48  0  0  0  0  0  0  0  0999 V2000
   -2.6102   -4.3649   -1.1901 F   0  0  0  0  0  0  0  0  0  0  0  0
   -2.4728   -3.2092   -0.4947 C   0  0  0  0  0  0  0  0  0  0  0  0
   -1.7949   -3.2054    0.7277 C   0  0  0  0  0  0  0  0  0  0  0  0
   -1.6506   -2.0144    1.4459 C   0  0  0  0  0  0  0  0  0  0  0  0
   -2.1812   -0.8149    0.9414 C   0  0  0  0  0  0  0  0  0  0  0  0
   -1.9947    0.4819    1.6842 C   0  0  0  0  0  0  0  0  0  0  0  0
   -1.1601    1.3967    0.8983 N   0  0  0  0  0  0  0  0  0  0  0  0
    0.1563    1.2542    0.5872 C   0  0  0  0  0  0  0  0  0  0  0  0
    0.9716    0.1806    1.0765 N   0  0  0  0  0  0  0  0  0  0  0  0
    2.2094   -0.2171    0.4017 C   0  0  0  0  0  0  0  0  0  0  0  0
    2.9978   -1.2168    1.2632 C   0  0  0  0  0  0  0  0  0  0  0  0
    4.3055   -1.6552    0.5662 C   0  0  0  0  0  0  0  0  0  0  0  0
    4.2900   -1.4082   -0.8871 N   0  0  0  0  0  0  0  0  0  0  0  0
    2.9975   -1.7793   -1.4733 C   0  0  0  0  0  0  0  0  0  0  0  0
    1.8873   -0.8344   -0.9779 C   0  0  0  0  0  0  0  0  0  0  0  0
    0.6275    2.2110   -0.2550 N   0  0  0  0  0  0  0  0  0  0  0  0
   -0.4555    2.9799   -0.4670 C   0  0  0  0  0  0  0  0  0  0  0  0
   -0.5438    4.1066   -1.2810 C   0  0  0  0  0  0  0  0  0  0  0  0
   -1.7933    4.7446   -1.3842 C   0  0  0  0  0  0  0  0  0  0  0  0
   -2.9126    4.2425   -0.6838 C   0  0  0  0  0  0  0  0  0  0  0  0
   -2.7926    3.1000    0.1289 C   0  0  0  0  0  0  0  0  0  0  0  0
   -1.5346    2.4960    0.2184 C   0  0  0  0  0  0  0  0  0  0  0  0
   -2.8658   -0.8282   -0.2853 C   0  0  0  0  0  0  0  0  0  0  0  0
   -3.0094   -2.0214   -0.9996 C   0  0  0  0  0  0  0  0  0  0  0  0
   -1.3794   -4.1249    1.1194 H   0  0  0  0  0  0  0  0  0  0  0  0
   -1.1210   -2.0289    2.3901 H   0  0  0  0  0  0  0  0  0  0  0  0
   -2.9922    0.9258    1.8787 H   0  0  0  0  0  0  0  0  0  0  0  0
   -1.5263    0.3179    2.6785 H   0  0  0  0  0  0  0  0  0  0  0  0
    0.6586   -0.3419    1.9244 H   0  0  0  0  0  0  0  0  0  0  0  0
    2.8480    0.6841    0.2600 H   0  0  0  0  0  0  0  0  0  0  0  0
    2.3658   -2.1139    1.4493 H   0  0  0  0  0  0  0  0  0  0  0  0
    3.2352   -0.7606    2.2491 H   0  0  0  0  0  0  0  0  0  0  0  0
    5.1545   -1.0877    1.0042 H   0  0  0  0  0  0  0  0  0  0  0  0
    4.4870   -2.7347    0.7700 H   0  0  0  0  0  0  0  0  0  0  0  0
    5.0300   -2.0052   -1.3251 H   0  0  0  0  0  0  0  0  0  0  0  0
    2.7467   -2.8324   -1.2098 H   0  0  0  0  0  0  0  0  0  0  0  0
    3.0614   -1.7188   -2.5817 H   0  0  0  0  0  0  0  0  0  0  0  0
    1.7469   -0.0126   -1.7135 H   0  0  0  0  0  0  0  0  0  0  0  0
    0.9331   -1.4050   -0.9282 H   0  0  0  0  0  0  0  0  0  0  0  0
    0.3181    4.4764   -1.8211 H   0  0  0  0  0  0  0  0  0  0  0  0
   -1.8986    5.6224   -2.0083 H   0  0  0  0  0  0  0  0  0  0  0  0
   -3.8703    4.7382   -0.7754 H   0  0  0  0  0  0  0  0  0  0  0  0
   -3.6535    2.7145    0.6565 H   0  0  0  0  0  0  0  0  0  0  0  0
   -3.2803    0.0865   -0.6908 H   0  0  0  0  0  0  0  0  0  0  0  0
   -3.5345   -2.0236   -1.9461 H   0  0  0  0  0  0  0  0  0  0  0  0
  1  2  1  0
  2  3  2  0
  3  4  1  0
  4  5  2  0
  5  6  1  0
  6  7  1  0
  7  8  1  0
  8  9  1  0
  9 10  1  0
 10 11  1  0
 11 12  1  0
 12 13  1  0
 13 14  1  0
 14 15  1  0
 15 10  1  0
  8 16  2  0
 16 17  1  0
 17 18  2  0
 18 19  1  0
 19 20  2  0
 20 21  1  0
 21 22  2  0
 22  7  1  0
 22 17  1  0
  5 23  1  0
 23 24  2  0
 24  2  1  0
  3 25  1  0
  4 26  1  0
  6 27  1  0
  6 28  1  0
  9 29  1  0
 10 30  1  0
 11 31  1  0
 11 32  1  0
 12 33  1  0
 12 34  1  0
 13 35  1  0
 14 36  1  0
 14 37  1  0
 15 38  1  0
 15 39  1  0
 18 40  1  0
 19 41  1  0
 20 42  1  0
 21 43  1  0
 23 44  1  0
 24 45  1  0
M  END
> <ID>
HT1518

> <Class>
1.0

> <Clusters>
182

> <Fold>
4

$$$$