
     RDKit          3D

 34 34  0  0  0  0  0  0  0  0999 V2000
    3.7971   -0.7047   -0.1545 C   0  0  0  0  0  0  0  0  0  0  0  0
    2.3061   -0.9371    0.0790 C   0  0  0  0  0  0  0  0  0  0  0  0
    1.5841    0.3899    0.3729 C   0  0  0  0  0  0  0  0  0  0  0  0
    0.0754    0.2957    0.7617 C   0  0  0  0  0  0  0  0  0  0  0  0
   -0.1757   -0.7019    1.9132 C   0  0  0  0  0  0  0  0  0  0  0  0
   -0.9650    0.2512   -0.4344 C   0  0  0  0  0  0  0  0  0  0  0  0
   -0.8529   -0.9935   -1.3886 C   0  0  0  0  0  0  0  0  0  0  0  0
   -0.9180   -2.3938   -0.7605 C   0  0  0  0  0  0  0  0  0  0  0  0
   -0.7491    1.5182   -1.2729 C   0  0  0  0  0  0  0  0  0  0  0  0
   -0.0951    1.4798   -2.3515 O   0  0  0  0  0  0  0  0  0  0  0  0
   -1.2333    2.7842   -0.8085 N   0  0  0  0  0  0  0  0  0  0  0  0
   -2.2377    2.8372    0.2046 C   0  0  0  0  0  0  0  0  0  0  0  0
   -2.7730    4.2801    0.7612 S   0  0  0  0  0  0  0  0  0  0  0  0
   -2.8506    1.6248    0.6421 N   0  0  0  0  0  0  0  0  0  0  0  0
   -2.3843    0.3696    0.1351 C   0  0  0  0  0  0  0  0  0  0  0  0
   -3.1575   -0.6240    0.1843 O   0  0  0  0  0  0  0  0  0  0  0  0
    4.2947   -1.6726   -0.3756 H   0  0  0  0  0  0  0  0  0  0  0  0
    4.2671   -0.2645    0.7508 H   0  0  0  0  0  0  0  0  0  0  0  0
    3.9514   -0.0218   -1.0171 H   0  0  0  0  0  0  0  0  0  0  0  0
    2.2004   -1.6390    0.9316 H   0  0  0  0  0  0  0  0  0  0  0  0
    1.8994   -1.4109   -0.8314 H   0  0  0  0  0  0  0  0  0  0  0  0
    2.1144    0.8741    1.2238 H   0  0  0  0  0  0  0  0  0  0  0  0
    1.7183    1.0719   -0.4915 H   0  0  0  0  0  0  0  0  0  0  0  0
   -0.1148    1.2780    1.2535 H   0  0  0  0  0  0  0  0  0  0  0  0
    0.0231   -1.7487    1.6303 H   0  0  0  0  0  0  0  0  0  0  0  0
    0.4927   -0.4585    2.7668 H   0  0  0  0  0  0  0  0  0  0  0  0
   -1.2183   -0.6291    2.2851 H   0  0  0  0  0  0  0  0  0  0  0  0
    0.0769   -0.9429   -1.9905 H   0  0  0  0  0  0  0  0  0  0  0  0
   -1.6808   -0.9266   -2.1300 H   0  0  0  0  0  0  0  0  0  0  0  0
   -1.2081   -3.1277   -1.5419 H   0  0  0  0  0  0  0  0  0  0  0  0
    0.0743   -2.7088   -0.3859 H   0  0  0  0  0  0  0  0  0  0  0  0
   -1.6549   -2.4687    0.0604 H   0  0  0  0  0  0  0  0  0  0  0  0
   -0.9006    3.6641   -1.2636 H   0  0  0  0  0  0  0  0  0  0  0  0
   -3.7056    1.6561    1.2422 H   0  0  0  0  0  0  0  0  0  0  0  0
  1  2  1  0
  2  3  1  0
  3  4  1  0
  4  5  1  0
  4  6  1  0
  6  7  1  0
  7  8  1  0
  6  9  1  0
  9 10  2  0
  9 11  1  0
 11 12  1  0
 12 13  2  0
 12 14  1  0
 14 15  1  0
 15  6  1  0
 15 16  2  0
  1 17  1  0
  1 18  1  0
  1 19  1  0
  2 20  1  0
  2 21  1  0
  3 22  1  0
  3 23  1  0
  4 24  1  0
  5 25  1  0
  5 26  1  0
  5 27  1  0
  7 28  1  0
  7 29  1  0
  8 30  1  0
  8 31  1  0
  8 32  1  0
 11 33  1  0
 14 34  1  0
M  END
> <ID>
HT2043

> <Class>
1.0

> <Clusters>
227

> <Fold>
4

$$$$