
     RDKit          3D

 44 45  0  0  0  0  0  0  0  0999 V2000
    4.3140    1.9582    1.7509 C   0  0  0  0  0  0  0  0  0  0  0  0
    4.1230    2.0961    0.3466 O   0  0  0  0  0  0  0  0  0  0  0  0
    3.1568    1.4009   -0.3967 C   0  0  0  0  0  0  0  0  0  0  0  0
    3.0822    1.6425   -1.7703 C   0  0  0  0  0  0  0  0  0  0  0  0
    2.1306    0.9896   -2.5515 C   0  0  0  0  0  0  0  0  0  0  0  0
    1.2482    0.0790   -1.9694 C   0  0  0  0  0  0  0  0  0  0  0  0
    1.3101   -0.2074   -0.5891 C   0  0  0  0  0  0  0  0  0  0  0  0
    2.2669    0.4806    0.1921 C   0  0  0  0  0  0  0  0  0  0  0  0
    0.3092   -1.1895    0.0476 C   0  0  2  0  0  0  0  0  0  0  0  0
    0.5913   -1.3683    1.4210 O   0  0  0  0  0  0  0  0  0  0  0  0
    0.3988   -2.5694   -0.6707 C   0  0  0  0  0  0  0  0  0  0  0  0
   -0.6207   -3.5669   -0.1089 C   0  0  0  0  0  0  0  0  0  0  0  0
   -2.0425   -3.0153   -0.2369 C   0  0  0  0  0  0  0  0  0  0  0  0
   -2.1737   -1.6597    0.4652 C   0  0  0  0  0  0  0  0  0  0  0  0
   -1.1487   -0.6351   -0.0790 C   0  0  1  0  0  0  0  0  0  0  0  0
   -1.3177    0.7245    0.6483 C   0  0  0  0  0  0  0  0  0  0  0  0
   -2.6675    1.2888    0.4175 N   0  0  0  0  0  0  0  0  0  0  0  0
   -2.7079    2.0744   -0.8289 C   0  0  0  0  0  0  0  0  0  0  0  0
   -3.0673    2.1432    1.5471 C   0  0  0  0  0  0  0  0  0  0  0  0
    4.5820    0.9094    1.9988 H   0  0  0  0  0  0  0  0  0  0  0  0
    5.1432    2.6218    2.0708 H   0  0  0  0  0  0  0  0  0  0  0  0
    3.3914    2.2559    2.2928 H   0  0  0  0  0  0  0  0  0  0  0  0
    3.7604    2.3483   -2.2330 H   0  0  0  0  0  0  0  0  0  0  0  0
    2.0720    1.1947   -3.6127 H   0  0  0  0  0  0  0  0  0  0  0  0
    0.5090   -0.3903   -2.6038 H   0  0  0  0  0  0  0  0  0  0  0  0
    2.3151    0.3147    1.2576 H   0  0  0  0  0  0  0  0  0  0  0  0
    1.4521   -1.8578    1.5023 H   0  0  0  0  0  0  0  0  0  0  0  0
    1.4206   -2.9929   -0.5557 H   0  0  0  0  0  0  0  0  0  0  0  0
    0.2099   -2.4659   -1.7601 H   0  0  0  0  0  0  0  0  0  0  0  0
   -0.3947   -3.7855    0.9576 H   0  0  0  0  0  0  0  0  0  0  0  0
   -0.5479   -4.5216   -0.6732 H   0  0  0  0  0  0  0  0  0  0  0  0
   -2.7563   -3.7348    0.2189 H   0  0  0  0  0  0  0  0  0  0  0  0
   -2.3067   -2.9064   -1.3119 H   0  0  0  0  0  0  0  0  0  0  0  0
   -3.2069   -1.2842    0.3013 H   0  0  0  0  0  0  0  0  0  0  0  0
   -2.0355   -1.7979    1.5603 H   0  0  0  0  0  0  0  0  0  0  0  0
   -1.3736   -0.4874   -1.1565 H   0  0  0  0  0  0  0  0  0  0  0  0
   -1.1445    0.5496    1.7349 H   0  0  0  0  0  0  0  0  0  0  0  0
   -0.5353    1.4463    0.3238 H   0  0  0  0  0  0  0  0  0  0  0  0
   -2.4268    1.4465   -1.6990 H   0  0  0  0  0  0  0  0  0  0  0  0
   -2.0214    2.9491   -0.7794 H   0  0  0  0  0  0  0  0  0  0  0  0
   -3.7409    2.4390   -1.0158 H   0  0  0  0  0  0  0  0  0  0  0  0
   -2.3369    2.9682    1.7055 H   0  0  0  0  0  0  0  0  0  0  0  0
   -3.1390    1.5370    2.4757 H   0  0  0  0  0  0  0  0  0  0  0  0
   -4.0743    2.5779    1.3663 H   0  0  0  0  0  0  0  0  0  0  0  0
  1  2  1  0
  2  3  1  0
  3  4  2  0
  4  5  1  0
  5  6  2  0
  6  7  1  0
  7  8  2  0
  8  3  1  0
  7  9  1  0
  9 10  1  1
  9 11  1  0
 11 12  1  0
 12 13  1  0
 13 14  1  0
 14 15  1  0
 15  9  1  0
 15 16  1  0
 16 17  1  0
 17 18  1  0
 17 19  1  0
  1 20  1  0
  1 21  1  0
  1 22  1  0
  4 23  1  0
  5 24  1  0
  6 25  1  0
  8 26  1  0
 10 27  1  0
 11 28  1  0
 11 29  1  0
 12 30  1  0
 12 31  1  0
 13 32  1  0
 13 33  1  0
 14 34  1  0
 14 35  1  0
 15 36  1  6
 16 37  1  0
 16 38  1  0
 18 39  1  0
 18 40  1  0
 18 41  1  0
 19 42  1  0
 19 43  1  0
 19 44  1  0
M  END
> <ID>
HT2095

> <Class>
1.0

> <Clusters>
162

> <Fold>
4

$$$$