
     RDKit          3D

 33 33  0  0  0  0  0  0  0  0999 V2000
   -4.0854    1.2929   -1.1094 C   0  0  0  0  0  0  0  0  0  0  0  0
   -3.6715    0.0870   -0.2573 C   0  0  0  0  0  0  0  0  0  0  0  0
   -4.1517    0.1765    1.1965 C   0  0  0  0  0  0  0  0  0  0  0  0
   -2.2348   -0.2004   -0.3576 N   0  0  0  0  0  0  0  0  0  0  0  0
   -1.1914    0.4967    0.0064 C   0  0  0  0  0  0  0  0  0  0  0  0
   -1.3034    1.7512    0.6862 N   0  0  0  0  0  0  0  0  0  0  0  0
    0.1236   -0.0524   -0.1660 N   0  0  0  0  0  0  0  0  0  0  0  0
    0.5409   -0.8616   -1.1010 C   0  0  0  0  0  0  0  0  0  0  0  0
   -0.2930   -1.2285   -2.2080 N   0  0  0  0  0  0  0  0  0  0  0  0
    1.8694   -1.4055   -1.0305 N   0  0  0  0  0  0  0  0  0  0  0  0
    2.8990   -0.9251   -0.1482 C   0  0  0  0  0  0  0  0  0  0  0  0
    3.8172   -1.8352    0.3980 C   0  0  0  0  0  0  0  0  0  0  0  0
    4.8405   -1.3896    1.2402 C   0  0  0  0  0  0  0  0  0  0  0  0
    4.9654   -0.0277    1.5317 C   0  0  0  0  0  0  0  0  0  0  0  0
    6.2512    0.5306    2.5862 Cl  0  0  0  0  0  0  0  0  0  0  0  0
    4.0705    0.8897    0.9723 C   0  0  0  0  0  0  0  0  0  0  0  0
    3.0460    0.4466    0.1301 C   0  0  0  0  0  0  0  0  0  0  0  0
   -3.6722    1.1882   -2.1351 H   0  0  0  0  0  0  0  0  0  0  0  0
   -5.1931    1.3330   -1.1846 H   0  0  0  0  0  0  0  0  0  0  0  0
   -3.7407    2.2534   -0.6840 H   0  0  0  0  0  0  0  0  0  0  0  0
   -4.1917   -0.7916   -0.6976 H   0  0  0  0  0  0  0  0  0  0  0  0
   -3.7600   -0.6857    1.7771 H   0  0  0  0  0  0  0  0  0  0  0  0
   -3.8377    1.1132    1.6929 H   0  0  0  0  0  0  0  0  0  0  0  0
   -5.2615    0.1365    1.2243 H   0  0  0  0  0  0  0  0  0  0  0  0
   -0.4352    2.2273    1.0173 H   0  0  0  0  0  0  0  0  0  0  0  0
   -2.1995    2.2510    0.8421 H   0  0  0  0  0  0  0  0  0  0  0  0
   -1.1182   -0.6589   -2.4942 H   0  0  0  0  0  0  0  0  0  0  0  0
    0.0147   -1.9832   -2.8603 H   0  0  0  0  0  0  0  0  0  0  0  0
    2.0736   -2.2576   -1.6001 H   0  0  0  0  0  0  0  0  0  0  0  0
    3.7322   -2.8921    0.1783 H   0  0  0  0  0  0  0  0  0  0  0  0
    5.5361   -2.1030    1.6635 H   0  0  0  0  0  0  0  0  0  0  0  0
    4.1732    1.9468    1.1819 H   0  0  0  0  0  0  0  0  0  0  0  0
    2.3875    1.1772   -0.3205 H   0  0  0  0  0  0  0  0  0  0  0  0
  1  2  1  0
  2  3  1  0
  2  4  1  0
  4  5  2  3
  5  6  1  0
  5  7  1  0
  7  8  2  3
  8  9  1  0
  8 10  1  0
 10 11  1  0
 11 12  2  0
 12 13  1  0
 13 14  2  0
 14 15  1  0
 14 16  1  0
 16 17  2  0
 17 11  1  0
  1 18  1  0
  1 19  1  0
  1 20  1  0
  2 21  1  0
  3 22  1  0
  3 23  1  0
  3 24  1  0
  6 25  1  0
  6 26  1  0
  9 27  1  0
  9 28  1  0
 10 29  1  0
 12 30  1  0
 13 31  1  0
 16 32  1  0
 17 33  1  0
M  END
> <ID>
HT1753

> <Class>
1.0

> <Clusters>
54

> <Fold>
4

$$$$