
     RDKit          3D

 24 23  0  0  0  0  0  0  0  0999 V2000
    2.8332   -1.2045    1.0193 N   0  0  0  0  0  0  0  0  0  0  0  0
    1.7379   -0.6508    0.2288 C   0  0  0  0  0  0  0  0  0  0  0  0
    0.6077   -0.1819    1.1599 C   0  0  0  0  0  0  0  0  0  0  0  0
   -0.6456    0.4273    0.4686 C   0  0  0  0  0  0  0  0  0  0  0  0
   -1.5298    0.8724    1.4674 O   0  0  0  0  0  0  0  0  0  0  0  0
   -1.5247   -0.8046   -0.5770 P   0  0  0  0  0  0  0  0  0  0  0  0
   -0.7230   -1.1463   -1.8129 O   0  0  0  0  0  0  0  0  0  0  0  0
   -1.7904   -2.2132    0.3236 O   0  0  0  0  0  0  0  0  0  0  0  0
   -3.0161   -0.1569   -1.0479 O   0  0  0  0  0  0  0  0  0  0  0  0
   -0.2127    1.8945   -0.5433 P   0  0  0  0  0  0  0  0  0  0  0  0
   -1.4789    2.6377   -0.9088 O   0  0  0  0  0  0  0  0  0  0  0  0
    0.7793    2.9195    0.3672 O   0  0  0  0  0  0  0  0  0  0  0  0
    0.6044    1.4500   -1.9599 O   0  0  0  0  0  0  0  0  0  0  0  0
    3.6152   -1.4345    0.3641 H   0  0  0  0  0  0  0  0  0  0  0  0
    2.5150   -2.1125    1.4301 H   0  0  0  0  0  0  0  0  0  0  0  0
    1.3713   -1.4259   -0.4757 H   0  0  0  0  0  0  0  0  0  0  0  0
    2.1288    0.2081   -0.3538 H   0  0  0  0  0  0  0  0  0  0  0  0
    0.2865   -1.0474    1.7801 H   0  0  0  0  0  0  0  0  0  0  0  0
    1.0266    0.5732    1.8610 H   0  0  0  0  0  0  0  0  0  0  0  0
   -1.8120    0.0842    2.0019 H   0  0  0  0  0  0  0  0  0  0  0  0
   -2.2761   -2.8197   -0.2904 H   0  0  0  0  0  0  0  0  0  0  0  0
   -3.4422   -0.8676   -1.5902 H   0  0  0  0  0  0  0  0  0  0  0  0
    1.0453    3.6373   -0.2612 H   0  0  0  0  0  0  0  0  0  0  0  0
   -0.0997    1.3615   -2.6508 H   0  0  0  0  0  0  0  0  0  0  0  0
  1  2  1  0
  2  3  1  0
  3  4  1  0
  4  5  1  0
  4  6  1  0
  6  7  2  0
  6  8  1  0
  6  9  1  0
  4 10  1  0
 10 11  2  0
 10 12  1  0
 10 13  1  0
  1 14  1  0
  1 15  1  0
  2 16  1  0
  2 17  1  0
  3 18  1  0
  3 19  1  0
  5 20  1  0
  8 21  1  0
  9 22  1  0
 12 23  1  0
 13 24  1  0
M  END
> <ID>
HT1584

> <Class>
1.0

> <Clusters>
188

> <Fold>
4

$$$$