
     RDKit          3D

 40 41  0  0  0  0  0  0  0  0999 V2000
    2.9794    3.1096   -0.9717 C   0  0  0  0  0  0  0  0  0  0  0  0
    3.2376    1.6711   -1.0837 N   0  0  0  0  0  0  0  0  0  0  0  0
    2.4878    0.9095   -0.0738 C   0  0  0  0  0  0  0  0  0  0  0  0
    1.1030    0.5231   -0.6132 C   0  0  0  0  0  0  0  0  0  0  0  0
    0.2737   -0.2646    0.4245 C   0  0  1  0  0  0  0  0  0  0  0  0
   -1.0645   -0.4458   -0.0465 O   0  0  0  0  0  0  0  0  0  0  0  0
   -2.0561    0.5481   -0.1365 C   0  0  0  0  0  0  0  0  0  0  0  0
   -1.8759    1.8443    0.3896 C   0  0  0  0  0  0  0  0  0  0  0  0
   -2.8898    2.7987    0.2797 C   0  0  0  0  0  0  0  0  0  0  0  0
   -4.0921    2.4753   -0.3490 C   0  0  0  0  0  0  0  0  0  0  0  0
   -4.2865    1.1950   -0.8700 C   0  0  0  0  0  0  0  0  0  0  0  0
   -3.2750    0.2256   -0.7671 C   0  0  0  0  0  0  0  0  0  0  0  0
   -3.4903   -1.1507   -1.3318 C   0  0  0  0  0  0  0  0  0  0  0  0
    0.8783   -1.6282    0.6789 C   0  0  0  0  0  0  0  0  0  0  0  0
    1.4685   -1.9248    1.9208 C   0  0  0  0  0  0  0  0  0  0  0  0
    2.0307   -3.1838    2.1529 C   0  0  0  0  0  0  0  0  0  0  0  0
    2.0074   -4.1576    1.1514 C   0  0  0  0  0  0  0  0  0  0  0  0
    1.4211   -3.8746   -0.0847 C   0  0  0  0  0  0  0  0  0  0  0  0
    0.8582   -2.6171   -0.3222 C   0  0  0  0  0  0  0  0  0  0  0  0
    3.5507    3.6458   -1.7584 H   0  0  0  0  0  0  0  0  0  0  0  0
    1.9023    3.3302   -1.1241 H   0  0  0  0  0  0  0  0  0  0  0  0
    3.3040    3.4950    0.0201 H   0  0  0  0  0  0  0  0  0  0  0  0
    4.2591    1.5286   -0.9025 H   0  0  0  0  0  0  0  0  0  0  0  0
    3.0485   -0.0228    0.1594 H   0  0  0  0  0  0  0  0  0  0  0  0
    2.3885    1.4785    0.8788 H   0  0  0  0  0  0  0  0  0  0  0  0
    1.2214   -0.0750   -1.5428 H   0  0  0  0  0  0  0  0  0  0  0  0
    0.5557    1.4458   -0.8917 H   0  0  0  0  0  0  0  0  0  0  0  0
    0.2466    0.3003    1.3819 H   0  0  0  0  0  0  0  0  0  0  0  0
   -0.9602    2.1292    0.8868 H   0  0  0  0  0  0  0  0  0  0  0  0
   -2.7430    3.7918    0.6847 H   0  0  0  0  0  0  0  0  0  0  0  0
   -4.8754    3.2177   -0.4317 H   0  0  0  0  0  0  0  0  0  0  0  0
   -5.2269    0.9613   -1.3537 H   0  0  0  0  0  0  0  0  0  0  0  0
   -4.4927   -1.2499   -1.8000 H   0  0  0  0  0  0  0  0  0  0  0  0
   -3.4072   -1.9045   -0.5207 H   0  0  0  0  0  0  0  0  0  0  0  0
   -2.7211   -1.3622   -2.1043 H   0  0  0  0  0  0  0  0  0  0  0  0
    1.4997   -1.1814    2.7075 H   0  0  0  0  0  0  0  0  0  0  0  0
    2.4855   -3.4044    3.1100 H   0  0  0  0  0  0  0  0  0  0  0  0
    2.4430   -5.1315    1.3333 H   0  0  0  0  0  0  0  0  0  0  0  0
    1.4021   -4.6303   -0.8593 H   0  0  0  0  0  0  0  0  0  0  0  0
    0.4040   -2.4152   -1.2843 H   0  0  0  0  0  0  0  0  0  0  0  0
  1  2  1  0
  2  3  1  0
  3  4  1  0
  5  4  1  0
  5  6  1  0
  6  7  1  0
  7  8  2  0
  8  9  1  0
  9 10  2  0
 10 11  1  0
 11 12  2  0
 12  7  1  0
 12 13  1  0
  5 14  1  0
 14 15  2  0
 15 16  1  0
 16 17  2  0
 17 18  1  0
 18 19  2  0
 19 14  1  0
  1 20  1  0
  1 21  1  0
  1 22  1  0
  2 23  1  0
  3 24  1  0
  3 25  1  0
  4 26  1  0
  4 27  1  0
  5 28  1  1
  8 29  1  0
  9 30  1  0
 10 31  1  0
 11 32  1  0
 13 33  1  0
 13 34  1  0
 13 35  1  0
 15 36  1  0
 16 37  1  0
 17 38  1  0
 18 39  1  0
 19 40  1  0
M  END
> <ID>
HT0193

> <Class>
1.0

> <Clusters>
23

> <Fold>
4

$$$$