
     RDKit          3D

 67 69  0  0  0  0  0  0  0  0999 V2000
    0.1322   -0.5065    2.8285 C   0  0  0  0  0  0  0  0  0  0  0  0
    0.6573   -1.1966    1.5556 C   0  0  0  0  0  0  0  0  0  0  0  0
   -0.3680   -2.1992    0.9883 C   0  0  0  0  0  0  0  0  0  0  0  0
   -1.6532   -1.5466    0.5372 C   0  0  0  0  0  0  0  0  0  0  0  0
   -1.7344   -0.9450   -0.7314 C   0  0  0  0  0  0  0  0  0  0  0  0
   -2.9296   -0.3411   -1.1148 C   0  0  0  0  0  0  0  0  0  0  0  0
   -3.2081    0.3585   -2.3897 C   0  0  0  0  0  0  0  0  0  0  0  0
   -4.6880    0.7655   -2.2460 C   0  0  0  0  0  0  0  0  0  0  0  0
   -5.0873    0.4519   -0.8656 N   0  0  0  0  0  0  0  0  0  0  0  0
   -5.8820    1.4154   -0.0871 C   0  0  0  0  0  0  0  0  0  0  0  0
   -7.3776    1.3327   -0.4328 C   0  0  0  0  0  0  0  0  0  0  0  0
   -7.7384    2.0866   -1.7176 C   0  0  0  0  0  0  0  0  0  0  0  0
   -9.1280    2.0909   -1.8999 O   0  0  0  0  0  0  0  0  0  0  0  0
   -4.0225   -0.3084   -0.2895 C   0  0  0  0  0  0  0  0  0  0  0  0
   -4.0059   -0.9806    0.9525 C   0  0  0  0  0  0  0  0  0  0  0  0
   -2.7957   -1.5749    1.3660 C   0  0  0  0  0  0  0  0  0  0  0  0
   -5.2143   -1.1703    1.7777 C   0  0  0  0  0  0  0  0  0  0  0  0
   -5.1387   -1.0701    3.0315 O   0  0  0  0  0  0  0  0  0  0  0  0
   -6.4601   -1.5210    1.1754 N   0  0  0  0  0  0  0  0  0  0  0  0
    1.0337   -0.2156    0.5163 N   0  0  0  0  0  0  0  0  0  0  0  0
    2.4164    0.2641    0.6567 C   0  0  0  0  0  0  0  0  0  0  0  0
    3.3730   -0.6526   -0.1007 C   0  0  0  0  0  0  0  0  0  0  0  0
    4.6925   -0.1192   -0.0310 O   0  0  0  0  0  0  0  0  0  0  0  0
    5.8226   -0.7114   -0.6157 C   0  0  0  0  0  0  0  0  0  0  0  0
    5.7484   -1.9262   -1.3261 C   0  0  0  0  0  0  0  0  0  0  0  0
    6.8980   -2.4848   -1.8888 C   0  0  0  0  0  0  0  0  0  0  0  0
    8.1281   -1.8416   -1.7512 C   0  0  0  0  0  0  0  0  0  0  0  0
    8.2138   -0.6360   -1.0512 C   0  0  0  0  0  0  0  0  0  0  0  0
    7.0608   -0.0622   -0.4794 C   0  0  0  0  0  0  0  0  0  0  0  0
    7.1031    1.1489    0.2288 O   0  0  0  0  0  0  0  0  0  0  0  0
    8.2833    1.9188    0.4452 C   0  0  0  0  0  0  0  0  0  0  0  0
    7.9390    3.1712    1.2403 C   0  0  0  0  0  0  0  0  0  0  0  0
    9.0853    3.9140    1.4558 F   0  0  0  0  0  0  0  0  0  0  0  0
    7.0276    3.9384    0.5369 F   0  0  0  0  0  0  0  0  0  0  0  0
    7.3922    2.8179    2.4609 F   0  0  0  0  0  0  0  0  0  0  0  0
   -0.7520    0.1269    2.6043 H   0  0  0  0  0  0  0  0  0  0  0  0
    0.9205    0.1366    3.2716 H   0  0  0  0  0  0  0  0  0  0  0  0
   -0.1559   -1.2680    3.5840 H   0  0  0  0  0  0  0  0  0  0  0  0
    1.5438   -1.8015    1.8529 H   0  0  0  0  0  0  0  0  0  0  0  0
    0.0873   -2.7416    0.1307 H   0  0  0  0  0  0  0  0  0  0  0  0
   -0.5840   -2.9711    1.7597 H   0  0  0  0  0  0  0  0  0  0  0  0
   -0.8841   -0.9394   -1.4019 H   0  0  0  0  0  0  0  0  0  0  0  0
   -3.0589   -0.3244   -3.2536 H   0  0  0  0  0  0  0  0  0  0  0  0
   -2.5563    1.2539   -2.4818 H   0  0  0  0  0  0  0  0  0  0  0  0
   -5.3131    0.1760   -2.9506 H   0  0  0  0  0  0  0  0  0  0  0  0
   -4.8062    1.8491   -2.4667 H   0  0  0  0  0  0  0  0  0  0  0  0
   -5.4978    2.4460   -0.2500 H   0  0  0  0  0  0  0  0  0  0  0  0
   -5.7671    1.2276    0.9986 H   0  0  0  0  0  0  0  0  0  0  0  0
   -7.9516    1.7802    0.4081 H   0  0  0  0  0  0  0  0  0  0  0  0
   -7.6931    0.2724   -0.5271 H   0  0  0  0  0  0  0  0  0  0  0  0
   -7.2813    1.5822   -2.5917 H   0  0  0  0  0  0  0  0  0  0  0  0
   -7.3534    3.1313   -1.6795 H   0  0  0  0  0  0  0  0  0  0  0  0
   -9.4950    2.7724   -1.2782 H   0  0  0  0  0  0  0  0  0  0  0  0
   -2.7480   -2.0854    2.3209 H   0  0  0  0  0  0  0  0  0  0  0  0
   -7.3193   -1.6172    1.7609 H   0  0  0  0  0  0  0  0  0  0  0  0
   -6.5155   -1.7460    0.1575 H   0  0  0  0  0  0  0  0  0  0  0  0
    0.3873    0.6078    0.5529 H   0  0  0  0  0  0  0  0  0  0  0  0
    2.7219    0.3379    1.7238 H   0  0  0  0  0  0  0  0  0  0  0  0
    2.4961    1.2840    0.2186 H   0  0  0  0  0  0  0  0  0  0  0  0
    3.0538   -0.7181   -1.1639 H   0  0  0  0  0  0  0  0  0  0  0  0
    3.3589   -1.6672    0.3516 H   0  0  0  0  0  0  0  0  0  0  0  0
    4.8085   -2.4465   -1.4478 H   0  0  0  0  0  0  0  0  0  0  0  0
    6.8350   -3.4189   -2.4323 H   0  0  0  0  0  0  0  0  0  0  0  0
    9.0173   -2.2779   -2.1878 H   0  0  0  0  0  0  0  0  0  0  0  0
    9.1799   -0.1589   -0.9602 H   0  0  0  0  0  0  0  0  0  0  0  0
    8.7221    2.2162   -0.5321 H   0  0  0  0  0  0  0  0  0  0  0  0
    9.0246    1.3165    1.0144 H   0  0  0  0  0  0  0  0  0  0  0  0
  1  2  1  0
  2  3  1  0
  3  4  1  0
  4  5  2  0
  5  6  1  0
  6  7  1  0
  7  8  1  0
  8  9  1  0
  9 10  1  0
 10 11  1  0
 11 12  1  0
 12 13  1  0
  9 14  1  0
 14  6  2  0
 14 15  1  0
 15 16  2  0
 16  4  1  0
 15 17  1  0
 17 18  2  0
 17 19  1  0
  2 20  1  0
 20 21  1  0
 21 22  1  0
 22 23  1  0
 23 24  1  0
 24 25  2  0
 25 26  1  0
 26 27  2  0
 27 28  1  0
 28 29  2  0
 29 24  1  0
 29 30  1  0
 30 31  1  0
 31 32  1  0
 32 33  1  0
 32 34  1  0
 32 35  1  0
  1 36  1  0
  1 37  1  0
  1 38  1  0
  2 39  1  0
  3 40  1  0
  3 41  1  0
  5 42  1  0
  7 43  1  0
  7 44  1  0
  8 45  1  0
  8 46  1  0
 10 47  1  0
 10 48  1  0
 11 49  1  0
 11 50  1  0
 12 51  1  0
 12 52  1  0
 13 53  1  0
 16 54  1  0
 19 55  1  0
 19 56  1  0
 20 57  1  0
 21 58  1  0
 21 59  1  0
 22 60  1  0
 22 61  1  0
 25 62  1  0
 26 63  1  0
 27 64  1  0
 28 65  1  0
 31 66  1  0
 31 67  1  0
M  END
> <ID>
HT1886

> <Class>
1.0

> <Clusters>
276

> <Fold>
4

$$$$