
     RDKit          3D

 42 45  0  0  0  0  0  0  0  0999 V2000
    4.3142    0.8105   -1.1624 C   0  0  0  0  0  0  0  0  0  0  0  0
    3.6766   -0.4155   -0.6560 N   0  0  0  0  0  0  0  0  0  0  0  0
    2.5740   -0.8634   -1.5516 C   0  0  0  0  0  0  0  0  0  0  0  0
    1.3165   -1.3101   -0.7977 C   0  0  0  0  0  0  0  0  0  0  0  0
    0.8769   -0.1873    0.1163 C   0  0  0  0  0  0  0  0  0  0  0  0
   -0.4088    0.2556    0.1942 C   0  0  0  0  0  0  0  0  0  0  0  0
   -1.4974   -0.2573   -0.6776 C   0  0  0  0  0  0  0  0  0  0  0  0
   -1.3591   -0.0512   -2.0648 C   0  0  0  0  0  0  0  0  0  0  0  0
   -2.3293   -0.4973   -2.9586 C   0  0  0  0  0  0  0  0  0  0  0  0
   -3.4725   -1.1297   -2.4844 C   0  0  0  0  0  0  0  0  0  0  0  0
   -3.6616   -1.2956   -1.1134 C   0  0  0  0  0  0  0  0  0  0  0  0
   -2.7012   -0.8557   -0.1802 C   0  0  0  0  0  0  0  0  0  0  0  0
   -3.1221   -0.9923    1.2860 C   0  0  0  0  0  0  0  0  0  0  0  0
   -2.0989   -0.7043    2.3904 C   0  0  0  0  0  0  0  0  0  0  0  0
   -1.6063    0.7001    2.3022 C   0  0  0  0  0  0  0  0  0  0  0  0
   -1.8803    1.9527    3.3872 S   0  0  0  0  0  0  0  0  0  0  0  0
   -0.9981    3.1099    2.5333 C   0  0  0  0  0  0  0  0  0  0  0  0
   -0.4782    2.5154    1.3882 C   0  0  0  0  0  0  0  0  0  0  0  0
   -0.8213    1.1621    1.2726 C   0  0  0  0  0  0  0  0  0  0  0  0
    1.9605    0.4055    0.9935 C   0  0  0  0  0  0  0  0  0  0  0  0
    3.3163   -0.2884    0.7774 C   0  0  0  0  0  0  0  0  0  0  0  0
    3.6106    1.6707   -1.1258 H   0  0  0  0  0  0  0  0  0  0  0  0
    4.6478    0.6604   -2.2119 H   0  0  0  0  0  0  0  0  0  0  0  0
    5.2184    1.0510   -0.5633 H   0  0  0  0  0  0  0  0  0  0  0  0
    2.9423   -1.7163   -2.1602 H   0  0  0  0  0  0  0  0  0  0  0  0
    2.2714   -0.0631   -2.2665 H   0  0  0  0  0  0  0  0  0  0  0  0
    1.5563   -2.2024   -0.1804 H   0  0  0  0  0  0  0  0  0  0  0  0
    0.5499   -1.6400   -1.5228 H   0  0  0  0  0  0  0  0  0  0  0  0
   -0.4834    0.4520   -2.4581 H   0  0  0  0  0  0  0  0  0  0  0  0
   -2.1956   -0.3473   -4.0221 H   0  0  0  0  0  0  0  0  0  0  0  0
   -4.2277   -1.4725   -3.1800 H   0  0  0  0  0  0  0  0  0  0  0  0
   -4.5824   -1.7551   -0.7734 H   0  0  0  0  0  0  0  0  0  0  0  0
   -3.4819   -2.0326    1.4456 H   0  0  0  0  0  0  0  0  0  0  0  0
   -3.9985   -0.3271    1.4512 H   0  0  0  0  0  0  0  0  0  0  0  0
   -2.5831   -0.8601    3.3784 H   0  0  0  0  0  0  0  0  0  0  0  0
   -1.2447   -1.4117    2.3149 H   0  0  0  0  0  0  0  0  0  0  0  0
   -0.8588    4.1420    2.8248 H   0  0  0  0  0  0  0  0  0  0  0  0
    0.1260    3.0466    0.6647 H   0  0  0  0  0  0  0  0  0  0  0  0
    2.0731    1.4848    0.7601 H   0  0  0  0  0  0  0  0  0  0  0  0
    1.6781    0.3028    2.0638 H   0  0  0  0  0  0  0  0  0  0  0  0
    4.1042    0.2591    1.3410 H   0  0  0  0  0  0  0  0  0  0  0  0
    3.2783   -1.3049    1.2257 H   0  0  0  0  0  0  0  0  0  0  0  0
  1  2  1  0
  2  3  1  0
  3  4  1  0
  4  5  1  0
  5  6  2  3
  6  7  1  0
  7  8  2  0
  8  9  1  0
  9 10  2  0
 10 11  1  0
 11 12  2  0
 12  7  1  0
 12 13  1  0
 13 14  1  0
 14 15  1  0
 15 16  1  0
 16 17  1  0
 17 18  2  0
 18 19  1  0
 19  6  1  0
 19 15  2  0
  5 20  1  0
 20 21  1  0
 21  2  1  0
  1 22  1  0
  1 23  1  0
  1 24  1  0
  3 25  1  0
  3 26  1  0
  4 27  1  0
  4 28  1  0
  8 29  1  0
  9 30  1  0
 10 31  1  0
 11 32  1  0
 13 33  1  0
 13 34  1  0
 14 35  1  0
 14 36  1  0
 17 37  1  0
 18 38  1  0
 20 39  1  0
 20 40  1  0
 21 41  1  0
 21 42  1  0
M  END
> <ID>
HT1702

> <Class>
1.0

> <Clusters>
26

> <Fold>
4

$$$$