
     RDKit          3D

 54 57  0  0  0  0  0  0  0  0999 V2000
   -2.0348    1.4102    0.0208 C   0  0  0  0  0  0  0  0  0  0  0  0
   -1.7649   -0.1336   -0.0290 C   0  0  2  0  0  0  0  0  0  0  0  0
   -1.1843   -0.6192    1.3258 C   0  0  0  0  0  0  0  0  0  0  0  0
    0.2442   -0.0679    1.6029 C   0  0  2  0  0  0  0  0  0  0  0  0
    0.1782    1.2843    1.9691 O   0  0  0  0  0  0  0  0  0  0  0  0
    1.2316   -0.2848    0.4000 C   0  0  1  0  0  0  0  0  0  0  0  0
    0.6180    0.1500   -0.9804 C   0  0  1  0  0  0  0  0  0  0  0  0
    1.5431   -0.2729   -2.1440 C   0  0  0  0  0  0  0  0  0  0  0  0
    2.9479    0.3025   -1.9811 C   0  0  0  0  0  0  0  0  0  0  0  0
    3.5071   -0.1079   -0.6431 C   0  0  0  0  0  0  0  0  0  0  0  0
    4.6601   -0.7943   -0.5914 C   0  0  0  0  0  0  0  0  0  0  0  0
    5.1914   -1.2753    0.6827 C   0  0  0  0  0  0  0  0  0  0  0  0
    6.2837   -1.9004    0.7188 O   0  0  0  0  0  0  0  0  0  0  0  0
    4.4397   -1.0382    1.9117 C   0  0  0  0  0  0  0  0  0  0  0  0
    3.2926   -0.3592    1.8848 C   0  0  0  0  0  0  0  0  0  0  0  0
    2.7009    0.2558    0.6149 C   0  0  2  0  0  0  0  0  0  0  0  0
    2.7733    1.7923    0.7901 C   0  0  0  0  0  0  0  0  0  0  0  0
   -0.7652   -0.5245   -1.1292 C   0  0  2  0  0  0  0  0  0  0  0  0
   -1.5338   -0.3528   -2.4342 C   0  0  0  0  0  0  0  0  0  0  0  0
   -2.9957   -0.6839   -2.0773 C   0  0  0  0  0  0  0  0  0  0  0  0
   -3.0599   -0.8704   -0.5217 C   0  0  1  0  0  0  0  0  0  0  0  0
   -3.0224   -2.2472   -0.1928 O   0  0  0  0  0  0  0  0  0  0  0  0
   -4.3482   -0.3146    0.0915 C   0  0  0  0  0  0  0  0  0  0  0  0
   -5.1270    0.3448   -0.5819 O   0  0  0  0  0  0  0  0  0  0  0  0
   -4.7132   -0.5973    1.5268 C   0  0  0  0  0  0  0  0  0  0  0  0
   -4.7087    0.5885    2.2736 O   0  0  0  0  0  0  0  0  0  0  0  0
   -2.6691    1.6625    0.8953 H   0  0  0  0  0  0  0  0  0  0  0  0
   -1.1236    2.0244    0.1102 H   0  0  0  0  0  0  0  0  0  0  0  0
   -2.5622    1.7656   -0.8883 H   0  0  0  0  0  0  0  0  0  0  0  0
   -1.1273   -1.7293    1.3389 H   0  0  0  0  0  0  0  0  0  0  0  0
   -1.8569   -0.3234    2.1582 H   0  0  0  0  0  0  0  0  0  0  0  0
    0.6317   -0.6522    2.4683 H   0  0  0  0  0  0  0  0  0  0  0  0
   -0.1867    1.3198    2.8919 H   0  0  0  0  0  0  0  0  0  0  0  0
    1.3455   -1.3935    0.3385 H   0  0  0  0  0  0  0  0  0  0  0  0
    0.5117    1.2494   -1.0364 H   0  0  0  0  0  0  0  0  0  0  0  0
    1.1279    0.0931   -3.1077 H   0  0  0  0  0  0  0  0  0  0  0  0
    1.6084   -1.3826   -2.1996 H   0  0  0  0  0  0  0  0  0  0  0  0
    3.5807   -0.0558   -2.8228 H   0  0  0  0  0  0  0  0  0  0  0  0
    2.9108    1.4104   -2.0479 H   0  0  0  0  0  0  0  0  0  0  0  0
    5.2055   -1.0267   -1.4986 H   0  0  0  0  0  0  0  0  0  0  0  0
    4.8217   -1.4110    2.8543 H   0  0  0  0  0  0  0  0  0  0  0  0
    2.8040   -0.1738    2.8328 H   0  0  0  0  0  0  0  0  0  0  0  0
    3.8258    2.1374    0.6910 H   0  0  0  0  0  0  0  0  0  0  0  0
    2.4357    2.1121    1.7973 H   0  0  0  0  0  0  0  0  0  0  0  0
    2.1696    2.3309    0.0337 H   0  0  0  0  0  0  0  0  0  0  0  0
   -0.5593   -1.6176   -1.0508 H   0  0  0  0  0  0  0  0  0  0  0  0
   -1.4480    0.6947   -2.7981 H   0  0  0  0  0  0  0  0  0  0  0  0
   -1.1510   -1.0424   -3.2180 H   0  0  0  0  0  0  0  0  0  0  0  0
   -3.3321   -1.6019   -2.6072 H   0  0  0  0  0  0  0  0  0  0  0  0
   -3.6319    0.1527   -2.4365 H   0  0  0  0  0  0  0  0  0  0  0  0
   -2.4236   -2.7340   -0.8148 H   0  0  0  0  0  0  0  0  0  0  0  0
   -5.7157   -1.0804    1.5679 H   0  0  0  0  0  0  0  0  0  0  0  0
   -3.9944   -1.3062    1.9852 H   0  0  0  0  0  0  0  0  0  0  0  0
   -5.5509    1.0670    2.0556 H   0  0  0  0  0  0  0  0  0  0  0  0
  2  1  1  1
  2  3  1  0
  3  4  1  0
  4  5  1  0
  4  6  1  0
  6  7  1  0
  7  8  1  0
  8  9  1  0
  9 10  1  0
 10 11  2  0
 11 12  1  0
 12 13  2  0
 12 14  1  0
 14 15  2  0
 15 16  1  0
 16  6  1  0
 16 10  1  0
 16 17  1  1
  7 18  1  0
 18  2  1  0
 18 19  1  0
 19 20  1  0
 20 21  1  0
 21  2  1  0
 21 22  1  6
 21 23  1  0
 23 24  2  0
 23 25  1  0
 25 26  1  0
  1 27  1  0
  1 28  1  0
  1 29  1  0
  3 30  1  0
  3 31  1  0
  4 32  1  1
  5 33  1  0
  6 34  1  6
  7 35  1  1
  8 36  1  0
  8 37  1  0
  9 38  1  0
  9 39  1  0
 11 40  1  0
 14 41  1  0
 15 42  1  0
 17 43  1  0
 17 44  1  0
 17 45  1  0
 18 46  1  1
 19 47  1  0
 19 48  1  0
 20 49  1  0
 20 50  1  0
 22 51  1  0
 25 52  1  0
 25 53  1  0
 26 54  1  0
M  END
> <ID>
HT1730

> <Class>
1.0

> <Clusters>
202

> <Fold>
4

$$$$