
     RDKit          3D

 40 40  0  0  0  0  0  0  0  0999 V2000
    5.9580    0.4591   -2.1244 C   0  0  0  0  0  0  0  0  0  0  0  0
    5.4951    0.3009   -0.6803 C   0  0  0  0  0  0  0  0  0  0  0  0
    4.1531   -0.2955   -0.6335 N   0  0  0  0  0  0  0  0  0  0  0  0
    3.9905   -1.7335   -0.8585 C   0  0  0  0  0  0  0  0  0  0  0  0
    2.9880    0.5062   -0.3636 C   0  0  0  0  0  0  0  0  0  0  0  0
    3.0914    1.7597   -0.2620 O   0  0  0  0  0  0  0  0  0  0  0  0
    1.7301   -0.1089   -0.2812 O   0  0  0  0  0  0  0  0  0  0  0  0
    0.5700    0.4796    0.2440 C   0  0  0  0  0  0  0  0  0  0  0  0
    0.6139    1.4456    1.2638 C   0  0  0  0  0  0  0  0  0  0  0  0
   -0.5694    1.9857    1.7696 C   0  0  0  0  0  0  0  0  0  0  0  0
   -1.8048    1.5687    1.2695 C   0  0  0  0  0  0  0  0  0  0  0  0
   -1.8716    0.6014    0.2467 C   0  0  0  0  0  0  0  0  0  0  0  0
   -0.6716    0.0504   -0.2397 C   0  0  0  0  0  0  0  0  0  0  0  0
   -3.1920    0.0767   -0.2992 C   0  0  2  0  0  0  0  0  0  0  0  0
   -4.3292    1.1235   -0.2872 C   0  0  0  0  0  0  0  0  0  0  0  0
   -3.5424   -1.2097    0.3601 N   0  0  0  0  0  0  0  0  0  0  0  0
   -4.0436   -1.0690    1.7388 C   0  0  0  0  0  0  0  0  0  0  0  0
   -4.4737   -2.0171   -0.4453 C   0  0  0  0  0  0  0  0  0  0  0  0
    6.9637    0.9292   -2.1447 H   0  0  0  0  0  0  0  0  0  0  0  0
    5.2480    1.1064   -2.6818 H   0  0  0  0  0  0  0  0  0  0  0  0
    6.0176   -0.5312   -2.6230 H   0  0  0  0  0  0  0  0  0  0  0  0
    6.2123   -0.3412   -0.1243 H   0  0  0  0  0  0  0  0  0  0  0  0
    5.5075    1.2970   -0.1882 H   0  0  0  0  0  0  0  0  0  0  0  0
    3.5264   -2.2032    0.0344 H   0  0  0  0  0  0  0  0  0  0  0  0
    4.9695   -2.2255   -1.0423 H   0  0  0  0  0  0  0  0  0  0  0  0
    3.3407   -1.9033   -1.7429 H   0  0  0  0  0  0  0  0  0  0  0  0
    1.5547    1.7573    1.6961 H   0  0  0  0  0  0  0  0  0  0  0  0
   -0.5297    2.7211    2.5630 H   0  0  0  0  0  0  0  0  0  0  0  0
   -2.6999    1.9962    1.6980 H   0  0  0  0  0  0  0  0  0  0  0  0
   -0.6991   -0.7147   -1.0065 H   0  0  0  0  0  0  0  0  0  0  0  0
   -3.0070   -0.1220   -1.3803 H   0  0  0  0  0  0  0  0  0  0  0  0
   -3.9830    2.0569   -0.7804 H   0  0  0  0  0  0  0  0  0  0  0  0
   -5.2045    0.7510   -0.8579 H   0  0  0  0  0  0  0  0  0  0  0  0
   -4.6627    1.3764    0.7388 H   0  0  0  0  0  0  0  0  0  0  0  0
   -5.0749   -0.6548    1.7590 H   0  0  0  0  0  0  0  0  0  0  0  0
   -3.3737   -0.4228    2.3414 H   0  0  0  0  0  0  0  0  0  0  0  0
   -4.0597   -2.0645    2.2314 H   0  0  0  0  0  0  0  0  0  0  0  0
   -4.5935   -3.0234    0.0107 H   0  0  0  0  0  0  0  0  0  0  0  0
   -5.4738   -1.5377   -0.5128 H   0  0  0  0  0  0  0  0  0  0  0  0
   -4.0705   -2.1709   -1.4690 H   0  0  0  0  0  0  0  0  0  0  0  0
  1  2  1  0
  2  3  1  0
  3  4  1  0
  3  5  1  0
  5  6  2  0
  5  7  1  0
  7  8  1  0
  8  9  2  0
  9 10  1  0
 10 11  2  0
 11 12  1  0
 12 13  2  0
 13  8  1  0
 12 14  1  0
 14 15  1  0
 14 16  1  0
 16 17  1  0
 16 18  1  0
  1 19  1  0
  1 20  1  0
  1 21  1  0
  2 22  1  0
  2 23  1  0
  4 24  1  0
  4 25  1  0
  4 26  1  0
  9 27  1  0
 10 28  1  0
 11 29  1  0
 13 30  1  0
 14 31  1  6
 15 32  1  0
 15 33  1  0
 15 34  1  0
 17 35  1  0
 17 36  1  0
 17 37  1  0
 18 38  1  0
 18 39  1  0
 18 40  1  0
M  END
> <ID>
HT1835

> <Class>
1.0

> <Clusters>
177

> <Fold>
4

$$$$