
     RDKit          3D

 59 61  0  0  0  0  0  0  0  0999 V2000
    0.6372    4.1905    2.0492 C   0  0  0  0  0  0  0  0  0  0  0  0
    0.2652    3.8059    0.6204 C   0  0  0  0  0  0  0  0  0  0  0  0
    0.4567    2.4080    0.4104 O   0  0  0  0  0  0  0  0  0  0  0  0
    1.7171    1.8036    0.3155 C   0  0  0  0  0  0  0  0  0  0  0  0
    2.7577    2.5164    0.2549 O   0  0  0  0  0  0  0  0  0  0  0  0
    1.8568    0.2997    0.2806 C   0  0  2  0  0  0  0  0  0  0  0  0
    2.3840   -0.1954   -1.0940 C   0  0  0  0  0  0  0  0  0  0  0  0
    2.9767   -1.6152   -1.0388 C   0  0  0  0  0  0  0  0  0  0  0  0
    4.2640   -1.6616   -0.2528 C   0  0  0  0  0  0  0  0  0  0  0  0
    5.4311   -1.0732   -0.7713 C   0  0  0  0  0  0  0  0  0  0  0  0
    6.6210   -1.1018   -0.0375 C   0  0  0  0  0  0  0  0  0  0  0  0
    6.6555   -1.7160    1.2171 C   0  0  0  0  0  0  0  0  0  0  0  0
    5.5009   -2.3067    1.7378 C   0  0  0  0  0  0  0  0  0  0  0  0
    4.3098   -2.2869    1.0053 C   0  0  0  0  0  0  0  0  0  0  0  0
    0.6199   -0.3831    0.7260 N   0  0  0  0  0  0  0  0  0  0  0  0
   -0.5590   -0.2742   -0.1681 C   0  0  1  0  0  0  0  0  0  0  0  0
   -0.8891   -1.6301   -0.8258 C   0  0  0  0  0  0  0  0  0  0  0  0
   -1.9790   -1.5171   -1.9010 C   0  0  0  0  0  0  0  0  0  0  0  0
   -3.3745   -1.5487   -1.3206 C   0  0  0  0  0  0  0  0  0  0  0  0
   -4.2535   -2.5788   -1.7044 C   0  0  0  0  0  0  0  0  0  0  0  0
   -5.5814   -2.5750   -1.2768 C   0  0  0  0  0  0  0  0  0  0  0  0
   -6.0547   -1.5385   -0.4747 C   0  0  0  0  0  0  0  0  0  0  0  0
   -5.1949   -0.5081   -0.0849 C   0  0  0  0  0  0  0  0  0  0  0  0
   -3.8453   -0.5113   -0.4801 C   0  0  0  0  0  0  0  0  0  0  0  0
   -2.9733    0.5463   -0.0371 N   0  0  0  0  0  0  0  0  0  0  0  0
   -3.3096    1.9498   -0.2993 C   0  0  0  0  0  0  0  0  0  0  0  0
   -3.7623    2.6878    0.9369 C   0  0  0  0  0  0  0  0  0  0  0  0
   -3.8496    3.9435    0.8951 O   0  0  0  0  0  0  0  0  0  0  0  0
   -4.1196    2.0343    2.1158 O   0  0  0  0  0  0  0  0  0  0  0  0
   -1.7389    0.2275    0.6217 C   0  0  0  0  0  0  0  0  0  0  0  0
   -1.6299    0.4282    1.8620 O   0  0  0  0  0  0  0  0  0  0  0  0
    0.4248    5.2677    2.2118 H   0  0  0  0  0  0  0  0  0  0  0  0
    0.0405    3.5899    2.7705 H   0  0  0  0  0  0  0  0  0  0  0  0
    1.7170    4.0079    2.2322 H   0  0  0  0  0  0  0  0  0  0  0  0
    0.8644    4.3929   -0.1115 H   0  0  0  0  0  0  0  0  0  0  0  0
   -0.8081    4.0456    0.4604 H   0  0  0  0  0  0  0  0  0  0  0  0
    2.6390    0.0746    1.0387 H   0  0  0  0  0  0  0  0  0  0  0  0
    3.1722    0.4984   -1.4609 H   0  0  0  0  0  0  0  0  0  0  0  0
    1.5831   -0.1695   -1.8601 H   0  0  0  0  0  0  0  0  0  0  0  0
    3.1806   -1.9604   -2.0757 H   0  0  0  0  0  0  0  0  0  0  0  0
    2.2352   -2.3234   -0.6123 H   0  0  0  0  0  0  0  0  0  0  0  0
    5.4180   -0.5958   -1.7427 H   0  0  0  0  0  0  0  0  0  0  0  0
    7.5161   -0.6500   -0.4422 H   0  0  0  0  0  0  0  0  0  0  0  0
    7.5771   -1.7336    1.7848 H   0  0  0  0  0  0  0  0  0  0  0  0
    5.5281   -2.7814    2.7099 H   0  0  0  0  0  0  0  0  0  0  0  0
    3.4213   -2.7432    1.4257 H   0  0  0  0  0  0  0  0  0  0  0  0
    0.8292   -1.3767    0.9796 H   0  0  0  0  0  0  0  0  0  0  0  0
   -0.3766    0.4707   -0.9714 H   0  0  0  0  0  0  0  0  0  0  0  0
    0.0250   -2.0099   -1.3244 H   0  0  0  0  0  0  0  0  0  0  0  0
   -1.1764   -2.3821   -0.0575 H   0  0  0  0  0  0  0  0  0  0  0  0
   -1.8455   -2.3635   -2.6103 H   0  0  0  0  0  0  0  0  0  0  0  0
   -1.8455   -0.5915   -2.4987 H   0  0  0  0  0  0  0  0  0  0  0  0
   -3.9175   -3.3801   -2.3507 H   0  0  0  0  0  0  0  0  0  0  0  0
   -6.2489   -3.3731   -1.5779 H   0  0  0  0  0  0  0  0  0  0  0  0
   -7.0877   -1.5298   -0.1553 H   0  0  0  0  0  0  0  0  0  0  0  0
   -5.5849    0.2866    0.5349 H   0  0  0  0  0  0  0  0  0  0  0  0
   -2.4121    2.4625   -0.7141 H   0  0  0  0  0  0  0  0  0  0  0  0
   -4.1067    2.0197   -1.0727 H   0  0  0  0  0  0  0  0  0  0  0  0
   -4.1009    1.0279    2.2084 H   0  0  0  0  0  0  0  0  0  0  0  0
  1  2  1  0
  2  3  1  0
  3  4  1  0
  4  5  2  0
  6  4  1  0
  6  7  1  0
  7  8  1  0
  8  9  1  0
  9 10  2  0
 10 11  1  0
 11 12  2  0
 12 13  1  0
 13 14  2  0
 14  9  1  0
  6 15  1  0
 16 15  1  0
 16 17  1  0
 17 18  1  0
 18 19  1  0
 19 20  2  0
 20 21  1  0
 21 22  2  0
 22 23  1  0
 23 24  2  0
 24 19  1  0
 24 25  1  0
 25 26  1  0
 26 27  1  0
 27 28  2  0
 27 29  1  0
 25 30  1  0
 30 16  1  0
 30 31  2  0
  1 32  1  0
  1 33  1  0
  1 34  1  0
  2 35  1  0
  2 36  1  0
  6 37  1  1
  7 38  1  0
  7 39  1  0
  8 40  1  0
  8 41  1  0
 10 42  1  0
 11 43  1  0
 12 44  1  0
 13 45  1  0
 14 46  1  0
 15 47  1  0
 16 48  1  6
 17 49  1  0
 17 50  1  0
 18 51  1  0
 18 52  1  0
 20 53  1  0
 21 54  1  0
 22 55  1  0
 23 56  1  0
 26 57  1  0
 26 58  1  0
 29 59  1  0
M  END
> <ID>
HT0233

> <Class>
1.0

> <Clusters>
94

> <Fold>
4

$$$$