
     RDKit          3D

 20 19  0  0  0  0  0  0  0  0999 V2000
   -1.2706   -2.1755   -0.0648 N   0  0  0  0  0  0  0  0  0  0  0  0
   -0.8575   -0.7812   -0.2333 C   0  0  0  0  0  0  0  0  0  0  0  0
    0.6336   -0.6394    0.1219 C   0  0  0  0  0  0  0  0  0  0  0  0
    1.1862    0.7476   -0.2378 C   0  0  0  0  0  0  0  0  0  0  0  0
    2.6552    0.8292    0.0579 C   0  0  0  0  0  0  0  0  0  0  0  0
    3.0611    0.7419    1.2469 O   0  0  0  0  0  0  0  0  0  0  0  0
    3.5802    1.0103   -0.9668 O   0  0  0  0  0  0  0  0  0  0  0  0
   -1.7074    0.1210    0.6364 C   0  0  0  0  0  0  0  0  0  0  0  0
   -2.4739    1.0856    0.1191 C   0  0  0  0  0  0  0  0  0  0  0  0
   -1.2293   -2.4315    0.9494 H   0  0  0  0  0  0  0  0  0  0  0  0
   -2.2673   -2.2677   -0.3696 H   0  0  0  0  0  0  0  0  0  0  0  0
   -0.9843   -0.5162   -1.3078 H   0  0  0  0  0  0  0  0  0  0  0  0
    0.7805   -0.8336    1.2080 H   0  0  0  0  0  0  0  0  0  0  0  0
    1.2079   -1.4079   -0.4421 H   0  0  0  0  0  0  0  0  0  0  0  0
    1.0100    0.9467   -1.3168 H   0  0  0  0  0  0  0  0  0  0  0  0
    0.6626    1.5337    0.3473 H   0  0  0  0  0  0  0  0  0  0  0  0
    3.2894    1.0831   -1.9343 H   0  0  0  0  0  0  0  0  0  0  0  0
   -1.6931   -0.0187    1.7137 H   0  0  0  0  0  0  0  0  0  0  0  0
   -3.0691    1.7139    0.7736 H   0  0  0  0  0  0  0  0  0  0  0  0
   -2.5142    1.2588   -0.9518 H   0  0  0  0  0  0  0  0  0  0  0  0
  1  2  1  0
  2  3  1  0
  3  4  1  0
  4  5  1  0
  5  6  2  0
  5  7  1  0
  2  8  1  0
  8  9  2  3
  1 10  1  0
  1 11  1  0
  2 12  1  0
  3 13  1  0
  3 14  1  0
  4 15  1  0
  4 16  1  0
  7 17  1  0
  8 18  1  0
  9 19  1  0
  9 20  1  0
M  END
> <ID>
HT2177

> <Class>
1.0

> <Clusters>
148

> <Fold>
4

$$$$