
     RDKit          3D

 47 48  0  0  0  0  0  0  0  0999 V2000
    5.8633   -1.4475    0.4207 C   0  0  0  0  0  0  0  0  0  0  0  0
    4.8485   -0.6667    1.0435 O   0  0  0  0  0  0  0  0  0  0  0  0
    3.5819   -0.4275    0.4901 C   0  0  0  0  0  0  0  0  0  0  0  0
    3.1914   -0.9491   -0.7555 C   0  0  0  0  0  0  0  0  0  0  0  0
    1.9176   -0.6815   -1.2641 C   0  0  0  0  0  0  0  0  0  0  0  0
    1.0046    0.1141   -0.5450 C   0  0  0  0  0  0  0  0  0  0  0  0
    1.4046    0.6256    0.7046 C   0  0  0  0  0  0  0  0  0  0  0  0
    2.6786    0.3576    1.2114 C   0  0  0  0  0  0  0  0  0  0  0  0
   -0.3815    0.3856   -1.1326 C   0  0  0  0  0  0  0  0  0  0  0  0
   -0.6788    1.9017   -1.3173 C   0  0  0  0  0  0  0  0  0  0  0  0
   -0.8983    2.6142   -0.0348 N   0  0  0  0  0  0  0  0  0  0  0  0
    0.0493    3.7319    0.1233 C   0  0  0  0  0  0  0  0  0  0  0  0
   -2.2741    3.1338    0.0630 C   0  0  0  0  0  0  0  0  0  0  0  0
   -1.5436   -0.4797   -0.5083 C   0  0  0  0  0  0  0  0  0  0  0  0
   -2.7747   -0.0606   -1.0558 O   0  0  0  0  0  0  0  0  0  0  0  0
   -1.3225   -1.9831   -0.8532 C   0  0  0  0  0  0  0  0  0  0  0  0
   -2.4415   -2.8715   -0.2887 C   0  0  0  0  0  0  0  0  0  0  0  0
   -2.5698   -2.7013    1.2285 C   0  0  0  0  0  0  0  0  0  0  0  0
   -2.7718   -1.2293    1.6038 C   0  0  0  0  0  0  0  0  0  0  0  0
   -1.6393   -0.3598    1.0377 C   0  0  0  0  0  0  0  0  0  0  0  0
    5.5062   -2.4883    0.2709 H   0  0  0  0  0  0  0  0  0  0  0  0
    6.7577   -1.4695    1.0764 H   0  0  0  0  0  0  0  0  0  0  0  0
    6.1474   -0.9971   -0.5538 H   0  0  0  0  0  0  0  0  0  0  0  0
    3.8635   -1.5636   -1.3387 H   0  0  0  0  0  0  0  0  0  0  0  0
    1.6445   -1.1021   -2.2240 H   0  0  0  0  0  0  0  0  0  0  0  0
    0.7325    1.2180    1.3067 H   0  0  0  0  0  0  0  0  0  0  0  0
    2.9642    0.7595    2.1754 H   0  0  0  0  0  0  0  0  0  0  0  0
   -0.3312    0.0437   -2.1922 H   0  0  0  0  0  0  0  0  0  0  0  0
   -1.5496    2.0146   -2.0037 H   0  0  0  0  0  0  0  0  0  0  0  0
    0.1722    2.3397   -1.8901 H   0  0  0  0  0  0  0  0  0  0  0  0
    1.0962    3.3655    0.0629 H   0  0  0  0  0  0  0  0  0  0  0  0
   -0.0765    4.2014    1.1227 H   0  0  0  0  0  0  0  0  0  0  0  0
   -0.1030    4.5032   -0.6646 H   0  0  0  0  0  0  0  0  0  0  0  0
   -2.4375    3.5962    1.0603 H   0  0  0  0  0  0  0  0  0  0  0  0
   -3.0099    2.3099   -0.0381 H   0  0  0  0  0  0  0  0  0  0  0  0
   -2.4763    3.8914   -0.7269 H   0  0  0  0  0  0  0  0  0  0  0  0
   -2.7437   -0.2107   -2.0372 H   0  0  0  0  0  0  0  0  0  0  0  0
   -0.3502   -2.3316   -0.4405 H   0  0  0  0  0  0  0  0  0  0  0  0
   -1.2833   -2.1239   -1.9555 H   0  0  0  0  0  0  0  0  0  0  0  0
   -2.2145   -3.9349   -0.5180 H   0  0  0  0  0  0  0  0  0  0  0  0
   -3.4081   -2.6193   -0.7771 H   0  0  0  0  0  0  0  0  0  0  0  0
   -3.4351   -3.2956    1.5930 H   0  0  0  0  0  0  0  0  0  0  0  0
   -1.6538   -3.0905    1.7253 H   0  0  0  0  0  0  0  0  0  0  0  0
   -2.7855   -1.1359    2.7113 H   0  0  0  0  0  0  0  0  0  0  0  0
   -3.7543   -0.8738    1.2234 H   0  0  0  0  0  0  0  0  0  0  0  0
   -0.6965   -0.7003    1.5133 H   0  0  0  0  0  0  0  0  0  0  0  0
   -1.8193    0.6868    1.3476 H   0  0  0  0  0  0  0  0  0  0  0  0
  1  2  1  0
  2  3  1  0
  3  4  2  0
  4  5  1  0
  5  6  2  0
  6  7  1  0
  7  8  2  0
  8  3  1  0
  6  9  1  0
  9 10  1  0
 10 11  1  0
 11 12  1  0
 11 13  1  0
  9 14  1  0
 14 15  1  0
 14 16  1  0
 16 17  1  0
 17 18  1  0
 18 19  1  0
 19 20  1  0
 20 14  1  0
  1 21  1  0
  1 22  1  0
  1 23  1  0
  4 24  1  0
  5 25  1  0
  7 26  1  0
  8 27  1  0
  9 28  1  0
 10 29  1  0
 10 30  1  0
 12 31  1  0
 12 32  1  0
 12 33  1  0
 13 34  1  0
 13 35  1  0
 13 36  1  0
 15 37  1  0
 16 38  1  0
 16 39  1  0
 17 40  1  0
 17 41  1  0
 18 42  1  0
 18 43  1  0
 19 44  1  0
 19 45  1  0
 20 46  1  0
 20 47  1  0
M  END
> <ID>
HT2172

> <Class>
1.0

> <Clusters>
91

> <Fold>
4

$$$$