
     RDKit          3D

 44 45  0  0  0  0  0  0  0  0999 V2000
    2.3131    2.3622    1.2428 C   0  0  0  0  0  0  0  0  0  0  0  0
    1.6270    1.1530    0.7871 N   0  0  0  0  0  0  0  0  0  0  0  0
    2.1506   -0.0515    0.4251 C   0  0  0  0  0  0  0  0  0  0  0  0
    3.6167   -0.3742    0.3915 C   0  0  0  0  0  0  0  0  0  0  0  0
    4.2596    0.1728   -0.8906 C   0  0  0  0  0  0  0  0  0  0  0  0
    5.7649   -0.1295   -0.9580 C   0  0  0  0  0  0  0  0  0  0  0  0
    6.0813   -1.5673   -1.2641 C   0  0  0  0  0  0  0  0  0  0  0  0
    7.2830   -1.9453   -1.2655 O   0  0  0  0  0  0  0  0  0  0  0  0
    5.0737   -2.4814   -1.5632 O   0  0  0  0  0  0  0  0  0  0  0  0
    1.2080   -0.9464    0.0268 N   0  0  0  0  0  0  0  0  0  0  0  0
    0.0584   -0.2612    0.1652 C   0  0  0  0  0  0  0  0  0  0  0  0
   -1.2303   -0.7094   -0.1069 C   0  0  0  0  0  0  0  0  0  0  0  0
   -2.3213    0.1793    0.1014 C   0  0  0  0  0  0  0  0  0  0  0  0
   -2.0381    1.4957    0.5790 C   0  0  0  0  0  0  0  0  0  0  0  0
   -0.7205    1.9111    0.8399 C   0  0  0  0  0  0  0  0  0  0  0  0
    0.3040    0.9963    0.6200 C   0  0  0  0  0  0  0  0  0  0  0  0
   -3.6909   -0.2425   -0.1671 N   0  0  0  0  0  0  0  0  0  0  0  0
   -4.8432    0.4930    0.3814 C   0  0  0  0  0  0  0  0  0  0  0  0
   -5.3198    1.5627   -0.6018 C   0  0  0  0  0  0  0  0  0  0  0  0
   -6.6460    2.5085    0.1185 Cl  0  0  0  0  0  0  0  0  0  0  0  0
   -3.9814   -1.4248   -0.9963 C   0  0  0  0  0  0  0  0  0  0  0  0
   -4.0983   -2.6786   -0.1287 C   0  0  0  0  0  0  0  0  0  0  0  0
   -4.3484   -4.1121   -1.1557 Cl  0  0  0  0  0  0  0  0  0  0  0  0
    1.9591    2.6294    2.2605 H   0  0  0  0  0  0  0  0  0  0  0  0
    3.4111    2.2203    1.2784 H   0  0  0  0  0  0  0  0  0  0  0  0
    2.0910    3.1994    0.5483 H   0  0  0  0  0  0  0  0  0  0  0  0
    4.1170    0.0468    1.2888 H   0  0  0  0  0  0  0  0  0  0  0  0
    3.7394   -1.4769    0.4370 H   0  0  0  0  0  0  0  0  0  0  0  0
    3.7464   -0.2411   -1.7867 H   0  0  0  0  0  0  0  0  0  0  0  0
    4.1281    1.2764   -0.9162 H   0  0  0  0  0  0  0  0  0  0  0  0
    6.2456    0.1553    0.0031 H   0  0  0  0  0  0  0  0  0  0  0  0
    6.2167    0.4981   -1.7560 H   0  0  0  0  0  0  0  0  0  0  0  0
    5.2935   -3.4476   -1.7732 H   0  0  0  0  0  0  0  0  0  0  0  0
   -1.3628   -1.7207   -0.4611 H   0  0  0  0  0  0  0  0  0  0  0  0
   -2.8242    2.2159    0.7460 H   0  0  0  0  0  0  0  0  0  0  0  0
   -0.5155    2.9115    1.1983 H   0  0  0  0  0  0  0  0  0  0  0  0
   -5.6843   -0.2085    0.5749 H   0  0  0  0  0  0  0  0  0  0  0  0
   -4.5904    0.9414    1.3657 H   0  0  0  0  0  0  0  0  0  0  0  0
   -4.4934    2.2525   -0.8681 H   0  0  0  0  0  0  0  0  0  0  0  0
   -5.6906    1.0841   -1.5324 H   0  0  0  0  0  0  0  0  0  0  0  0
   -3.2049   -1.5548   -1.7799 H   0  0  0  0  0  0  0  0  0  0  0  0
   -4.9407   -1.2809   -1.5403 H   0  0  0  0  0  0  0  0  0  0  0  0
   -3.1809   -2.8287    0.4760 H   0  0  0  0  0  0  0  0  0  0  0  0
   -4.9620   -2.5824    0.5621 H   0  0  0  0  0  0  0  0  0  0  0  0
  1  2  1  0
  2  3  1  0
  3  4  1  0
  4  5  1  0
  5  6  1  0
  6  7  1  0
  7  8  2  0
  7  9  1  0
  3 10  2  0
 10 11  1  0
 11 12  2  0
 12 13  1  0
 13 14  2  0
 14 15  1  0
 15 16  2  0
 16  2  1  0
 16 11  1  0
 13 17  1  0
 17 18  1  0
 18 19  1  0
 19 20  1  0
 17 21  1  0
 21 22  1  0
 22 23  1  0
  1 24  1  0
  1 25  1  0
  1 26  1  0
  4 27  1  0
  4 28  1  0
  5 29  1  0
  5 30  1  0
  6 31  1  0
  6 32  1  0
  9 33  1  0
 12 34  1  0
 14 35  1  0
 15 36  1  0
 18 37  1  0
 18 38  1  0
 19 39  1  0
 19 40  1  0
 21 41  1  0
 21 42  1  0
 22 43  1  0
 22 44  1  0
M  END
> <ID>
HT0234

> <Class>
1.0

> <Clusters>
48

> <Fold>
4

$$$$