
     RDKit          3D

 65 67  0  0  0  0  0  0  0  0999 V2000
   -3.2879    4.5675    0.2858 C   0  0  0  0  0  0  0  0  0  0  0  0
   -3.9754    3.6517   -0.7219 C   0  0  0  0  0  0  0  0  0  0  0  0
   -3.1766    2.5009   -0.9905 O   0  0  0  0  0  0  0  0  0  0  0  0
   -2.9888    1.4619   -0.0709 C   0  0  0  0  0  0  0  0  0  0  0  0
   -3.6341    1.4432    1.0138 O   0  0  0  0  0  0  0  0  0  0  0  0
   -2.0206    0.3467   -0.3953 C   0  0  2  0  0  0  0  0  0  0  0  0
   -2.7558   -1.0021   -0.4900 C   0  0  0  0  0  0  0  0  0  0  0  0
   -3.7609   -1.0514   -1.6517 C   0  0  0  0  0  0  0  0  0  0  0  0
   -4.3634   -2.4281   -1.7847 C   0  0  0  0  0  0  0  0  0  0  0  0
   -5.2220   -2.9265   -0.7898 C   0  0  0  0  0  0  0  0  0  0  0  0
   -5.7589   -4.2116   -0.9021 C   0  0  0  0  0  0  0  0  0  0  0  0
   -5.4577   -5.0025   -2.0134 C   0  0  0  0  0  0  0  0  0  0  0  0
   -4.6164   -4.5117   -3.0146 C   0  0  0  0  0  0  0  0  0  0  0  0
   -4.0732   -3.2288   -2.9040 C   0  0  0  0  0  0  0  0  0  0  0  0
   -0.9683    0.2370    0.6387 N   0  0  0  0  0  0  0  0  0  0  0  0
    0.2686    0.9790    0.3255 C   0  0  1  0  0  0  0  0  0  0  0  0
    0.0528    2.5010    0.3424 C   0  0  0  0  0  0  0  0  0  0  0  0
    1.3215    0.6053    1.3329 C   0  0  0  0  0  0  0  0  0  0  0  0
    1.1574    0.8963    2.5465 O   0  0  0  0  0  0  0  0  0  0  0  0
    2.5100   -0.0830    0.9334 N   0  0  0  0  0  0  0  0  0  0  0  0
    3.5490    0.5011    0.1035 C   0  0  1  0  0  0  0  0  0  0  0  0
    4.0963    1.8554    0.5845 C   0  0  0  0  0  0  0  0  0  0  0  0
    5.5491    2.0928    0.0782 C   0  0  0  0  0  0  0  0  0  0  0  0
    5.9163    1.2504   -1.1720 C   0  0  0  0  0  0  0  0  0  0  0  0
    5.6549   -0.2729   -0.9974 C   0  0  0  0  0  0  0  0  0  0  0  0
    4.6559   -0.5343    0.1389 C   0  0  2  0  0  0  0  0  0  0  0  0
    3.9030   -1.8599    0.1551 C   0  0  0  0  0  0  0  0  0  0  0  0
    2.6306   -1.5395    0.9702 C   0  0  1  0  0  0  0  0  0  0  0  0
    2.7640   -2.0046    2.3907 C   0  0  0  0  0  0  0  0  0  0  0  0
    2.0215   -2.9231    2.8242 O   0  0  0  0  0  0  0  0  0  0  0  0
    3.6991   -1.4148    3.2318 O   0  0  0  0  0  0  0  0  0  0  0  0
   -2.2884    4.8666   -0.0940 H   0  0  0  0  0  0  0  0  0  0  0  0
   -3.9028    5.4801    0.4445 H   0  0  0  0  0  0  0  0  0  0  0  0
   -3.1584    4.0469    1.2567 H   0  0  0  0  0  0  0  0  0  0  0  0
   -4.1161    4.2145   -1.6692 H   0  0  0  0  0  0  0  0  0  0  0  0
   -4.9766    3.3455   -0.3483 H   0  0  0  0  0  0  0  0  0  0  0  0
   -1.5623    0.5477   -1.3909 H   0  0  0  0  0  0  0  0  0  0  0  0
   -1.9981   -1.8019   -0.6420 H   0  0  0  0  0  0  0  0  0  0  0  0
   -3.2727   -1.2127    0.4709 H   0  0  0  0  0  0  0  0  0  0  0  0
   -3.2415   -0.7655   -2.5928 H   0  0  0  0  0  0  0  0  0  0  0  0
   -4.5787   -0.3146   -1.4872 H   0  0  0  0  0  0  0  0  0  0  0  0
   -5.4748   -2.3236    0.0720 H   0  0  0  0  0  0  0  0  0  0  0  0
   -6.4132   -4.5943   -0.1287 H   0  0  0  0  0  0  0  0  0  0  0  0
   -5.8803   -5.9937   -2.0991 H   0  0  0  0  0  0  0  0  0  0  0  0
   -4.3875   -5.1250   -3.8779 H   0  0  0  0  0  0  0  0  0  0  0  0
   -3.4239   -2.8628   -3.6872 H   0  0  0  0  0  0  0  0  0  0  0  0
   -1.3318    0.5119    1.5818 H   0  0  0  0  0  0  0  0  0  0  0  0
    0.6317    0.6832   -0.6844 H   0  0  0  0  0  0  0  0  0  0  0  0
    1.0256    3.0306    0.2597 H   0  0  0  0  0  0  0  0  0  0  0  0
   -0.4485    2.8158    1.2845 H   0  0  0  0  0  0  0  0  0  0  0  0
   -0.5639    2.8168   -0.5243 H   0  0  0  0  0  0  0  0  0  0  0  0
    3.1531    0.6110   -0.9333 H   0  0  0  0  0  0  0  0  0  0  0  0
    3.4366    2.6658    0.2079 H   0  0  0  0  0  0  0  0  0  0  0  0
    4.0841    1.8982    1.6970 H   0  0  0  0  0  0  0  0  0  0  0  0
    5.6870    3.1701   -0.1521 H   0  0  0  0  0  0  0  0  0  0  0  0
    6.2604    1.8391    0.8973 H   0  0  0  0  0  0  0  0  0  0  0  0
    5.3109    1.6261   -2.0269 H   0  0  0  0  0  0  0  0  0  0  0  0
    6.9843    1.4159   -1.4259 H   0  0  0  0  0  0  0  0  0  0  0  0
    5.2642   -0.6830   -1.9526 H   0  0  0  0  0  0  0  0  0  0  0  0
    6.6062   -0.7939   -0.7677 H   0  0  0  0  0  0  0  0  0  0  0  0
    5.2021   -0.4544    1.1104 H   0  0  0  0  0  0  0  0  0  0  0  0
    3.6239   -2.1500   -0.8795 H   0  0  0  0  0  0  0  0  0  0  0  0
    4.5150   -2.6751    0.6040 H   0  0  0  0  0  0  0  0  0  0  0  0
    1.7463   -2.0107    0.4875 H   0  0  0  0  0  0  0  0  0  0  0  0
    3.7979   -1.7205    4.1931 H   0  0  0  0  0  0  0  0  0  0  0  0
  1  2  1  0
  2  3  1  0
  3  4  1  0
  4  5  2  0
  6  4  1  0
  6  7  1  0
  7  8  1  0
  8  9  1  0
  9 10  2  0
 10 11  1  0
 11 12  2  0
 12 13  1  0
 13 14  2  0
 14  9  1  0
  6 15  1  0
 15 16  1  0
 16 17  1  0
 16 18  1  0
 18 19  2  0
 18 20  1  0
 20 21  1  0
 21 22  1  0
 22 23  1  0
 23 24  1  0
 24 25  1  0
 25 26  1  0
 26 21  1  0
 26 27  1  0
 27 28  1  0
 28 20  1  0
 28 29  1  0
 29 30  2  0
 29 31  1  0
  1 32  1  0
  1 33  1  0
  1 34  1  0
  2 35  1  0
  2 36  1  0
  6 37  1  6
  7 38  1  0
  7 39  1  0
  8 40  1  0
  8 41  1  0
 10 42  1  0
 11 43  1  0
 12 44  1  0
 13 45  1  0
 14 46  1  0
 15 47  1  0
 16 48  1  6
 17 49  1  0
 17 50  1  0
 17 51  1  0
 21 52  1  6
 22 53  1  0
 22 54  1  0
 23 55  1  0
 23 56  1  0
 24 57  1  0
 24 58  1  0
 25 59  1  0
 25 60  1  0
 26 61  1  1
 27 62  1  0
 27 63  1  0
 28 64  1  6
 31 65  1  0
M  END
> <ID>
HT2096

> <Class>
1.0

> <Clusters>
233

> <Fold>
4

$$$$