
     RDKit          3D

 38 40  0  0  0  0  0  0  0  0999 V2000
    5.7622    0.8058   -1.8508 N   0  0  0  0  0  0  0  0  0  0  0  0
    5.4509   -0.3763   -0.6276 S   0  0  0  0  0  0  0  0  0  0  0  0
    6.3802   -0.1627    0.5340 O   0  0  0  0  0  0  0  0  0  0  0  0
    5.7100   -1.7435   -1.1962 O   0  0  0  0  0  0  0  0  0  0  0  0
    3.7701   -0.2540   -0.0873 C   0  0  0  0  0  0  0  0  0  0  0  0
    2.8466   -1.2258   -0.5016 C   0  0  0  0  0  0  0  0  0  0  0  0
    1.5095   -1.1523   -0.0982 C   0  0  0  0  0  0  0  0  0  0  0  0
    1.0760   -0.1073    0.7313 C   0  0  0  0  0  0  0  0  0  0  0  0
   -0.2946   -0.0283    1.1613 N   0  0  0  0  0  0  0  0  0  0  0  0
   -1.1996   -1.1865    1.0899 C   0  0  0  0  0  0  0  0  0  0  0  0
   -2.6202   -0.8317    1.5789 C   0  0  0  0  0  0  0  0  0  0  0  0
   -3.3077    0.2160    0.7342 C   0  0  0  0  0  0  0  0  0  0  0  0
   -3.9971   -0.1543   -0.4338 C   0  0  0  0  0  0  0  0  0  0  0  0
   -4.6480    0.8123   -1.2063 C   0  0  0  0  0  0  0  0  0  0  0  0
   -4.6283    2.1533   -0.8132 C   0  0  0  0  0  0  0  0  0  0  0  0
   -5.2610    3.0891   -1.5629 F   0  0  0  0  0  0  0  0  0  0  0  0
   -3.9626    2.5280    0.3571 C   0  0  0  0  0  0  0  0  0  0  0  0
   -3.3104    1.5643    1.1324 C   0  0  0  0  0  0  0  0  0  0  0  0
   -1.2347   -1.7420   -0.2699 N   0  0  0  0  0  0  0  0  0  0  0  0
    0.3462   -2.3366   -0.6604 S   0  0  0  0  0  0  0  0  0  0  0  0
    0.4608   -2.5072   -2.1492 O   0  0  0  0  0  0  0  0  0  0  0  0
    0.5785   -3.6540    0.0243 O   0  0  0  0  0  0  0  0  0  0  0  0
    1.9908    0.8761    1.1294 C   0  0  0  0  0  0  0  0  0  0  0  0
    3.3306    0.8109    0.7281 C   0  0  0  0  0  0  0  0  0  0  0  0
    4.4157    2.0884    1.2661 Cl  0  0  0  0  0  0  0  0  0  0  0  0
    5.0379    0.6753   -2.5921 H   0  0  0  0  0  0  0  0  0  0  0  0
    5.5932    1.7448   -1.4267 H   0  0  0  0  0  0  0  0  0  0  0  0
    3.1605   -2.0367   -1.1462 H   0  0  0  0  0  0  0  0  0  0  0  0
   -0.6145    0.8456    1.6360 H   0  0  0  0  0  0  0  0  0  0  0  0
   -0.8177   -1.9668    1.7867 H   0  0  0  0  0  0  0  0  0  0  0  0
   -2.5572   -0.4833    2.6334 H   0  0  0  0  0  0  0  0  0  0  0  0
   -3.2407   -1.7544    1.5961 H   0  0  0  0  0  0  0  0  0  0  0  0
   -4.0285   -1.1907   -0.7462 H   0  0  0  0  0  0  0  0  0  0  0  0
   -5.1702    0.5200   -2.1082 H   0  0  0  0  0  0  0  0  0  0  0  0
   -3.9542    3.5652    0.6667 H   0  0  0  0  0  0  0  0  0  0  0  0
   -2.8082    1.8705    2.0414 H   0  0  0  0  0  0  0  0  0  0  0  0
   -1.4254   -0.9642   -0.9427 H   0  0  0  0  0  0  0  0  0  0  0  0
    1.6613    1.6931    1.7595 H   0  0  0  0  0  0  0  0  0  0  0  0
  1  2  1  0
  2  3  2  0
  2  4  2  0
  2  5  1  0
  5  6  2  0
  6  7  1  0
  7  8  2  0
  8  9  1  0
  9 10  1  0
 10 11  1  0
 11 12  1  0
 12 13  2  0
 13 14  1  0
 14 15  2  0
 15 16  1  0
 15 17  1  0
 17 18  2  0
 18 12  1  0
 10 19  1  0
 19 20  1  0
 20  7  1  0
 20 21  2  0
 20 22  2  0
  8 23  1  0
 23 24  2  0
 24  5  1  0
 24 25  1  0
  1 26  1  0
  1 27  1  0
  6 28  1  0
  9 29  1  0
 10 30  1  0
 11 31  1  0
 11 32  1  0
 13 33  1  0
 14 34  1  0
 17 35  1  0
 18 36  1  0
 19 37  1  0
 23 38  1  0
M  END
> <ID>
HT1589

> <Class>
1.0

> <Clusters>
32

> <Fold>
4

$$$$