
     RDKit          3D

 28 28  0  0  0  0  0  0  0  0999 V2000
   -0.7980   -0.4930   -1.6140 O   0  0  0  0  0  0  0  0  0  0  0  0
   -1.0822   -0.2556   -0.2584 C   0  0  0  0  0  0  0  0  0  0  0  0
   -0.0553   -1.0139    0.6172 C   0  0  0  0  0  0  0  0  0  0  0  0
    1.3782   -0.6000    0.3731 C   0  0  0  0  0  0  0  0  0  0  0  0
    2.0736    0.1632    1.3243 C   0  0  0  0  0  0  0  0  0  0  0  0
    3.3991    0.5331    1.0912 C   0  0  0  0  0  0  0  0  0  0  0  0
    4.0257    0.1255   -0.0873 C   0  0  0  0  0  0  0  0  0  0  0  0
    3.3484   -0.6291   -0.9924 N   0  0  0  0  0  0  0  0  0  0  0  0
    2.0557   -1.0000   -0.7903 C   0  0  0  0  0  0  0  0  0  0  0  0
   -1.0239    1.5518    0.0871 P   0  0  0  0  0  0  0  0  0  0  0  0
   -1.1250    1.7910    1.5769 O   0  0  0  0  0  0  0  0  0  0  0  0
    0.4341    2.1950   -0.4843 O   0  0  0  0  0  0  0  0  0  0  0  0
   -2.3091    2.3382   -0.6846 O   0  0  0  0  0  0  0  0  0  0  0  0
   -2.7632   -0.8891    0.1255 P   0  0  0  0  0  0  0  0  0  0  0  0
   -3.0798   -0.6551    1.5861 O   0  0  0  0  0  0  0  0  0  0  0  0
   -2.8385   -2.5483   -0.2074 O   0  0  0  0  0  0  0  0  0  0  0  0
   -3.9175   -0.0897   -0.8197 O   0  0  0  0  0  0  0  0  0  0  0  0
   -1.4569    0.0130   -2.1559 H   0  0  0  0  0  0  0  0  0  0  0  0
   -0.3110   -0.8660    1.6897 H   0  0  0  0  0  0  0  0  0  0  0  0
   -0.1341   -2.1060    0.4257 H   0  0  0  0  0  0  0  0  0  0  0  0
    1.5875    0.4816    2.2380 H   0  0  0  0  0  0  0  0  0  0  0  0
    3.9358    1.1297    1.8173 H   0  0  0  0  0  0  0  0  0  0  0  0
    5.0528    0.4044   -0.2804 H   0  0  0  0  0  0  0  0  0  0  0  0
    1.5611   -1.6132   -1.5318 H   0  0  0  0  0  0  0  0  0  0  0  0
    0.3830    3.1619   -0.2767 H   0  0  0  0  0  0  0  0  0  0  0  0
   -2.0500    2.3726   -1.6397 H   0  0  0  0  0  0  0  0  0  0  0  0
   -2.4381   -2.9898    0.5836 H   0  0  0  0  0  0  0  0  0  0  0  0
   -3.8525   -0.5122   -1.7129 H   0  0  0  0  0  0  0  0  0  0  0  0
  1  2  1  0
  2  3  1  0
  3  4  1  0
  4  5  2  0
  5  6  1  0
  6  7  2  0
  7  8  1  0
  8  9  2  0
  9  4  1  0
  2 10  1  0
 10 11  2  0
 10 12  1  0
 10 13  1  0
  2 14  1  0
 14 15  2  0
 14 16  1  0
 14 17  1  0
  1 18  1  0
  3 19  1  0
  3 20  1  0
  5 21  1  0
  6 22  1  0
  7 23  1  0
  9 24  1  0
 12 25  1  0
 13 26  1  0
 16 27  1  0
 17 28  1  0
M  END
> <ID>
HT1830

> <Class>
1.0

> <Clusters>
188

> <Fold>
4

$$$$