
     RDKit          3D

 38 40  0  0  0  0  0  0  0  0999 V2000
   -5.6233    2.1443   -1.0646 N   0  0  0  0  0  0  0  0  0  0  0  0
   -5.4364    0.4743   -0.6568 S   0  0  0  0  0  0  0  0  0  0  0  0
   -6.3831    0.1129    0.4531 O   0  0  0  0  0  0  0  0  0  0  0  0
   -5.7764   -0.3605   -1.8598 O   0  0  0  0  0  0  0  0  0  0  0  0
   -3.7687    0.1611   -0.1544 C   0  0  0  0  0  0  0  0  0  0  0  0
   -2.9057   -0.5130   -1.0317 C   0  0  0  0  0  0  0  0  0  0  0  0
   -1.5799   -0.7683   -0.6670 C   0  0  0  0  0  0  0  0  0  0  0  0
   -1.0975   -0.3573    0.5846 C   0  0  0  0  0  0  0  0  0  0  0  0
    0.2614   -0.6246    0.9742 N   0  0  0  0  0  0  0  0  0  0  0  0
    1.0817   -1.6362    0.2894 C   0  0  0  0  0  0  0  0  0  0  0  0
    2.5085   -1.7056    0.8746 C   0  0  0  0  0  0  0  0  0  0  0  0
    3.2959   -0.4270    0.7044 C   0  0  0  0  0  0  0  0  0  0  0  0
    3.9925   -0.1761   -0.4909 C   0  0  0  0  0  0  0  0  0  0  0  0
    4.7354    0.9986   -0.6422 C   0  0  0  0  0  0  0  0  0  0  0  0
    4.8009    1.9251    0.4015 C   0  0  0  0  0  0  0  0  0  0  0  0
    4.1286    1.6754    1.6006 C   0  0  0  0  0  0  0  0  0  0  0  0
    3.3843    0.5019    1.7561 C   0  0  0  0  0  0  0  0  0  0  0  0
    1.1183   -1.3896   -1.1586 N   0  0  0  0  0  0  0  0  0  0  0  0
   -0.4887   -1.5626   -1.7853 S   0  0  0  0  0  0  0  0  0  0  0  0
   -0.8370   -3.0200   -1.8992 O   0  0  0  0  0  0  0  0  0  0  0  0
   -0.5694   -0.9107   -3.1370 O   0  0  0  0  0  0  0  0  0  0  0  0
   -1.9504    0.3346    1.4542 C   0  0  0  0  0  0  0  0  0  0  0  0
   -3.2784    0.5959    1.0957 C   0  0  0  0  0  0  0  0  0  0  0  0
   -4.2841    1.4757    2.2418 Cl  0  0  0  0  0  0  0  0  0  0  0  0
   -5.3999    2.7007   -0.2098 H   0  0  0  0  0  0  0  0  0  0  0  0
   -4.8879    2.3696   -1.7714 H   0  0  0  0  0  0  0  0  0  0  0  0
   -3.2576   -0.8332   -2.0040 H   0  0  0  0  0  0  0  0  0  0  0  0
    0.6290   -0.1618    1.8357 H   0  0  0  0  0  0  0  0  0  0  0  0
    0.6229   -2.6345    0.4720 H   0  0  0  0  0  0  0  0  0  0  0  0
    2.4384   -1.9637    1.9543 H   0  0  0  0  0  0  0  0  0  0  0  0
    3.0596   -2.5429    0.3930 H   0  0  0  0  0  0  0  0  0  0  0  0
    3.9582   -0.8893   -1.3052 H   0  0  0  0  0  0  0  0  0  0  0  0
    5.2632    1.1890   -1.5677 H   0  0  0  0  0  0  0  0  0  0  0  0
    5.3773    2.8336    0.2833 H   0  0  0  0  0  0  0  0  0  0  0  0
    4.1869    2.3898    2.4116 H   0  0  0  0  0  0  0  0  0  0  0  0
    2.8778    0.3193    2.6955 H   0  0  0  0  0  0  0  0  0  0  0  0
    1.3856   -0.3914   -1.3198 H   0  0  0  0  0  0  0  0  0  0  0  0
   -1.5821    0.6664    2.4171 H   0  0  0  0  0  0  0  0  0  0  0  0
  1  2  1  0
  2  3  2  0
  2  4  2  0
  2  5  1  0
  5  6  2  0
  6  7  1  0
  7  8  2  0
  8  9  1  0
  9 10  1  0
 10 11  1  0
 11 12  1  0
 12 13  2  0
 13 14  1  0
 14 15  2  0
 15 16  1  0
 16 17  2  0
 17 12  1  0
 10 18  1  0
 18 19  1  0
 19  7  1  0
 19 20  2  0
 19 21  2  0
  8 22  1  0
 22 23  2  0
 23  5  1  0
 23 24  1  0
  1 25  1  0
  1 26  1  0
  6 27  1  0
  9 28  1  0
 10 29  1  0
 11 30  1  0
 11 31  1  0
 13 32  1  0
 14 33  1  0
 15 34  1  0
 16 35  1  0
 17 36  1  0
 18 37  1  0
 22 38  1  0
M  END
> <ID>
HT0259

> <Class>
1.0

> <Clusters>
32

> <Fold>
4

$$$$