
     RDKit          3D

 41 43  0  0  0  0  0  0  0  0999 V2000
   -0.6043   -0.5575    1.3843 C   0  0  0  0  0  0  0  0  0  0  0  0
   -1.6729   -0.8474    0.3135 C   0  0  0  0  0  0  0  0  0  0  0  0
   -1.3434   -0.3085   -1.1222 C   0  0  0  0  0  0  0  0  0  0  0  0
   -0.4299    0.8468   -1.1213 N   0  0  0  0  0  0  0  0  0  0  0  0
    1.0014    0.7560   -1.0126 C   0  0  0  0  0  0  0  0  0  0  0  0
    1.7452    1.8938   -0.6739 C   0  0  0  0  0  0  0  0  0  0  0  0
    3.1369    1.8253   -0.5391 C   0  0  0  0  0  0  0  0  0  0  0  0
    3.9953    3.2936   -0.0852 Cl  0  0  0  0  0  0  0  0  0  0  0  0
    3.8045    0.6014   -0.7562 C   0  0  0  0  0  0  0  0  0  0  0  0
    3.0561   -0.5341   -1.1007 C   0  0  0  0  0  0  0  0  0  0  0  0
    1.6660   -0.4552   -1.2342 C   0  0  0  0  0  0  0  0  0  0  0  0
    0.7447   -1.8629   -1.7062 S   0  0  0  0  0  0  0  0  0  0  0  0
    0.7619   -2.8923   -0.6118 O   0  0  0  0  0  0  0  0  0  0  0  0
    1.3372   -2.4520   -2.9556 O   0  0  0  0  0  0  0  0  0  0  0  0
   -0.8883   -1.3756   -2.0312 N   0  0  0  0  0  0  0  0  0  0  0  0
    5.5601    0.4588   -0.5850 S   0  0  0  0  0  0  0  0  0  0  0  0
    6.2398    1.5836   -1.3139 O   0  0  0  0  0  0  0  0  0  0  0  0
    6.0308   -0.8411   -1.1754 O   0  0  0  0  0  0  0  0  0  0  0  0
    5.9920    0.5008    1.0889 N   0  0  0  0  0  0  0  0  0  0  0  0
   -3.0174   -0.3260    0.7962 C   0  0  0  0  0  0  0  0  0  0  0  0
   -4.0744   -1.2191    1.0526 C   0  0  0  0  0  0  0  0  0  0  0  0
   -5.3127   -0.7425    1.4937 C   0  0  0  0  0  0  0  0  0  0  0  0
   -5.5099    0.6273    1.6826 C   0  0  0  0  0  0  0  0  0  0  0  0
   -4.4693    1.5240    1.4306 C   0  0  0  0  0  0  0  0  0  0  0  0
   -3.2291    1.0531    0.9896 C   0  0  0  0  0  0  0  0  0  0  0  0
   -0.4398    0.5332    1.5098 H   0  0  0  0  0  0  0  0  0  0  0  0
    0.3591   -1.0388    1.1313 H   0  0  0  0  0  0  0  0  0  0  0  0
   -0.9301   -0.9724    2.3623 H   0  0  0  0  0  0  0  0  0  0  0  0
   -1.7406   -1.9561    0.2423 H   0  0  0  0  0  0  0  0  0  0  0  0
   -2.3039    0.0531   -1.5578 H   0  0  0  0  0  0  0  0  0  0  0  0
   -0.8623    1.7978   -1.1601 H   0  0  0  0  0  0  0  0  0  0  0  0
    1.2379    2.8347   -0.4995 H   0  0  0  0  0  0  0  0  0  0  0  0
    3.5502   -1.4826   -1.2679 H   0  0  0  0  0  0  0  0  0  0  0  0
   -0.8998   -0.9934   -3.0054 H   0  0  0  0  0  0  0  0  0  0  0  0
    5.6728    1.4189    1.4701 H   0  0  0  0  0  0  0  0  0  0  0  0
    5.4281   -0.2367    1.5678 H   0  0  0  0  0  0  0  0  0  0  0  0
   -3.9428   -2.2846    0.9117 H   0  0  0  0  0  0  0  0  0  0  0  0
   -6.1203   -1.4362    1.6888 H   0  0  0  0  0  0  0  0  0  0  0  0
   -6.4694    0.9939    2.0239 H   0  0  0  0  0  0  0  0  0  0  0  0
   -4.6235    2.5853    1.5766 H   0  0  0  0  0  0  0  0  0  0  0  0
   -2.4361    1.7639    0.7983 H   0  0  0  0  0  0  0  0  0  0  0  0
  1  2  1  0
  2  3  1  0
  3  4  1  0
  4  5  1  0
  5  6  2  0
  6  7  1  0
  7  8  1  0
  7  9  2  0
  9 10  1  0
 10 11  2  0
 11  5  1  0
 11 12  1  0
 12 13  2  0
 12 14  2  0
 12 15  1  0
 15  3  1  0
  9 16  1  0
 16 17  2  0
 16 18  2  0
 16 19  1  0
  2 20  1  0
 20 21  2  0
 21 22  1  0
 22 23  2  0
 23 24  1  0
 24 25  2  0
 25 20  1  0
  1 26  1  0
  1 27  1  0
  1 28  1  0
  2 29  1  0
  3 30  1  0
  4 31  1  0
  6 32  1  0
 10 33  1  0
 15 34  1  0
 19 35  1  0
 19 36  1  0
 21 37  1  0
 22 38  1  0
 23 39  1  0
 24 40  1  0
 25 41  1  0
M  END
> <ID>
HT0232

> <Class>
1.0

> <Clusters>
32

> <Fold>
4

$$$$