
     RDKit          3D

 39 39  0  0  0  0  0  0  0  0999 V2000
   -4.8104   -0.6852   -0.7120 O   0  0  0  0  0  0  0  0  0  0  0  0
   -3.4229   -0.8633   -0.8169 C   0  0  0  0  0  0  0  0  0  0  0  0
   -2.7243   -0.4928    0.5064 C   0  0  0  0  0  0  0  0  0  0  0  0
   -2.8680    1.0050    0.8362 C   0  0  0  0  0  0  0  0  0  0  0  0
   -2.2466    1.2888    2.0594 O   0  0  0  0  0  0  0  0  0  0  0  0
   -1.3223   -0.9640    0.5187 N   0  0  0  0  0  0  0  0  0  0  0  0
   -0.3743   -0.2613   -0.3809 C   0  0  1  0  0  0  0  0  0  0  0  0
    0.4639    0.8042    0.3931 C   0  0  0  0  0  0  0  0  0  0  0  0
    1.8513    1.0468   -0.2446 C   0  0  1  0  0  0  0  0  0  0  0  0
    1.6389    1.4338   -1.5852 O   0  0  0  0  0  0  0  0  0  0  0  0
    2.5692    2.2189    0.4813 C   0  0  0  0  0  0  0  0  0  0  0  0
    2.5992    2.0244    1.8702 O   0  0  0  0  0  0  0  0  0  0  0  0
    2.6922   -0.2825   -0.2072 C   0  0  1  0  0  0  0  0  0  0  0  0
    3.4488   -0.3611    0.9759 O   0  0  0  0  0  0  0  0  0  0  0  0
    1.8208   -1.5661   -0.3245 C   0  0  2  0  0  0  0  0  0  0  0  0
    2.5726   -2.5719   -0.9566 O   0  0  0  0  0  0  0  0  0  0  0  0
    0.5231   -1.3047   -1.1101 C   0  0  1  0  0  0  0  0  0  0  0  0
   -0.1695   -2.5136   -1.2977 O   0  0  0  0  0  0  0  0  0  0  0  0
   -5.1590   -1.4565   -0.1932 H   0  0  0  0  0  0  0  0  0  0  0  0
   -3.1961   -1.9216   -1.0803 H   0  0  0  0  0  0  0  0  0  0  0  0
   -3.0557   -0.2269   -1.6477 H   0  0  0  0  0  0  0  0  0  0  0  0
   -3.2589   -1.0488    1.3099 H   0  0  0  0  0  0  0  0  0  0  0  0
   -3.9489    1.2583    0.9136 H   0  0  0  0  0  0  0  0  0  0  0  0
   -2.4328    1.6308    0.0271 H   0  0  0  0  0  0  0  0  0  0  0  0
   -2.3425    2.2669    2.1971 H   0  0  0  0  0  0  0  0  0  0  0  0
   -0.9692   -1.0244    1.5019 H   0  0  0  0  0  0  0  0  0  0  0  0
   -0.9236    0.2743   -1.1837 H   0  0  0  0  0  0  0  0  0  0  0  0
    0.6157    0.4860    1.4472 H   0  0  0  0  0  0  0  0  0  0  0  0
   -0.0977    1.7623    0.4197 H   0  0  0  0  0  0  0  0  0  0  0  0
    2.5200    1.6448   -1.9924 H   0  0  0  0  0  0  0  0  0  0  0  0
    2.0329    3.1694    0.2591 H   0  0  0  0  0  0  0  0  0  0  0  0
    3.6092    2.3149    0.0949 H   0  0  0  0  0  0  0  0  0  0  0  0
    3.0760    2.8081    2.2486 H   0  0  0  0  0  0  0  0  0  0  0  0
    3.3980   -0.2540   -1.0715 H   0  0  0  0  0  0  0  0  0  0  0  0
    4.1607   -1.0361    0.8216 H   0  0  0  0  0  0  0  0  0  0  0  0
    1.5393   -1.8986    0.7046 H   0  0  0  0  0  0  0  0  0  0  0  0
    2.2097   -3.4442   -0.6513 H   0  0  0  0  0  0  0  0  0  0  0  0
    0.8133   -0.9062   -2.1112 H   0  0  0  0  0  0  0  0  0  0  0  0
   -0.8321   -2.3536   -2.0197 H   0  0  0  0  0  0  0  0  0  0  0  0
  1  2  1  0
  2  3  1  0
  3  4  1  0
  4  5  1  0
  3  6  1  0
  7  6  1  0
  7  8  1  0
  8  9  1  0
  9 10  1  6
  9 11  1  0
 11 12  1  0
  9 13  1  0
 13 14  1  0
 13 15  1  0
 15 16  1  0
 15 17  1  0
 17  7  1  0
 17 18  1  0
  1 19  1  0
  2 20  1  0
  2 21  1  0
  3 22  1  0
  4 23  1  0
  4 24  1  0
  5 25  1  0
  6 26  1  0
  7 27  1  6
  8 28  1  0
  8 29  1  0
 10 30  1  0
 11 31  1  0
 11 32  1  0
 12 33  1  0
 13 34  1  6
 14 35  1  0
 15 36  1  1
 16 37  1  0
 17 38  1  6
 18 39  1  0
M  END
> <ID>
HT2193

> <Class>
1.0

> <Clusters>
171

> <Fold>
4

$$$$