
     RDKit          3D

 31 32  0  0  0  0  0  0  0  0999 V2000
   -3.1666   -1.5951    0.6486 C   0  0  0  0  0  0  0  0  0  0  0  0
   -2.0981   -0.7902   -0.0929 C   0  0  0  0  0  0  0  0  0  0  0  0
   -1.3303    0.1840    0.8306 C   0  0  1  0  0  0  0  0  0  0  0  0
   -0.2378    1.0386    0.1225 C   0  0  1  0  0  0  0  0  0  0  0  0
    0.4711    0.4401   -1.1167 C   0  0  0  0  0  0  0  0  0  0  0  0
    1.4632   -0.6291   -0.7393 C   0  0  0  0  0  0  0  0  0  0  0  0
    1.3306   -1.9812   -0.9796 C   0  0  0  0  0  0  0  0  0  0  0  0
    2.4508   -2.6188   -0.5849 N   0  0  0  0  0  0  0  0  0  0  0  0
    3.2510   -1.6375   -0.1188 C   0  0  0  0  0  0  0  0  0  0  0  0
    2.6801   -0.4193   -0.1957 N   0  0  0  0  0  0  0  0  0  0  0  0
    3.3728    0.8493    0.0182 C   0  0  0  0  0  0  0  0  0  0  0  0
   -0.9094    2.3930   -0.1860 C   0  0  0  0  0  0  0  0  0  0  0  0
   -2.0063    2.4726    0.7041 O   0  0  0  0  0  0  0  0  0  0  0  0
   -2.2362    1.2600    1.3163 C   0  0  0  0  0  0  0  0  0  0  0  0
   -3.1095    1.1069    2.2101 O   0  0  0  0  0  0  0  0  0  0  0  0
   -2.7325   -2.0835    1.5469 H   0  0  0  0  0  0  0  0  0  0  0  0
   -4.0121   -0.9437    0.9509 H   0  0  0  0  0  0  0  0  0  0  0  0
   -3.5671   -2.3838   -0.0229 H   0  0  0  0  0  0  0  0  0  0  0  0
   -2.5730   -0.2369   -0.9330 H   0  0  0  0  0  0  0  0  0  0  0  0
   -1.3898   -1.5241   -0.5192 H   0  0  0  0  0  0  0  0  0  0  0  0
   -0.8827   -0.3671    1.6875 H   0  0  0  0  0  0  0  0  0  0  0  0
    0.5351    1.2498    0.8945 H   0  0  0  0  0  0  0  0  0  0  0  0
    1.0263    1.2436   -1.6472 H   0  0  0  0  0  0  0  0  0  0  0  0
   -0.2671    0.0478   -1.8466 H   0  0  0  0  0  0  0  0  0  0  0  0
    0.4909   -2.4750   -1.4484 H   0  0  0  0  0  0  0  0  0  0  0  0
    4.2588   -1.8107    0.2365 H   0  0  0  0  0  0  0  0  0  0  0  0
    4.0855    0.7539    0.8646 H   0  0  0  0  0  0  0  0  0  0  0  0
    3.9347    1.1224   -0.8993 H   0  0  0  0  0  0  0  0  0  0  0  0
    2.6596    1.6625    0.2546 H   0  0  0  0  0  0  0  0  0  0  0  0
   -1.2859    2.4372   -1.2310 H   0  0  0  0  0  0  0  0  0  0  0  0
   -0.2064    3.2339   -0.0029 H   0  0  0  0  0  0  0  0  0  0  0  0
  1  2  1  0
  3  2  1  0
  3  4  1  0
  4  5  1  0
  5  6  1  0
  6  7  2  0
  7  8  1  0
  8  9  2  0
  9 10  1  0
 10  6  1  0
 10 11  1  0
  4 12  1  0
 12 13  1  0
 13 14  1  0
 14  3  1  0
 14 15  2  0
  1 16  1  0
  1 17  1  0
  1 18  1  0
  2 19  1  0
  2 20  1  0
  3 21  1  1
  4 22  1  1
  5 23  1  0
  5 24  1  0
  7 25  1  0
  9 26  1  0
 11 27  1  0
 11 28  1  0
 11 29  1  0
 12 30  1  0
 12 31  1  0
M  END
> <ID>
HT1672

> <Class>
1.0

> <Clusters>
144

> <Fold>
4

$$$$