
     RDKit          3D

 50 51  0  0  0  0  0  0  0  0999 V2000
    6.3898    0.6805    0.2065 C   0  0  0  0  0  0  0  0  0  0  0  0
    5.4125   -0.3938   -0.3079 C   0  0  0  0  0  0  0  0  0  0  0  0
    5.8482   -1.7637    0.2460 C   0  0  0  0  0  0  0  0  0  0  0  0
    3.9274   -0.0589    0.0568 C   0  0  2  0  0  0  0  0  0  0  0  0
    2.9564   -1.1492   -0.4644 C   0  0  0  0  0  0  0  0  0  0  0  0
    1.4903   -0.8101   -0.1679 C   0  0  0  0  0  0  0  0  0  0  0  0
    1.1036    0.5527   -0.7606 C   0  0  2  0  0  0  0  0  0  0  0  0
    2.0361    1.6420   -0.2025 C   0  0  0  0  0  0  0  0  0  0  0  0
    3.5041    1.3220   -0.5065 C   0  0  0  0  0  0  0  0  0  0  0  0
   -0.3528    0.8462   -0.4809 C   0  0  0  0  0  0  0  0  0  0  0  0
   -0.6790    1.7813    0.3023 O   0  0  0  0  0  0  0  0  0  0  0  0
   -1.3702    0.0585   -1.1182 N   0  0  0  0  0  0  0  0  0  0  0  0
   -2.7945    0.2164   -0.8049 C   0  0  2  0  0  0  0  0  0  0  0  0
   -3.1044   -0.4173    0.5658 C   0  0  0  0  0  0  0  0  0  0  0  0
   -4.5337   -0.1775    0.9870 C   0  0  0  0  0  0  0  0  0  0  0  0
   -5.4535   -1.2394    1.0264 C   0  0  0  0  0  0  0  0  0  0  0  0
   -6.7776   -1.0104    1.4138 C   0  0  0  0  0  0  0  0  0  0  0  0
   -7.1916    0.2761    1.7691 C   0  0  0  0  0  0  0  0  0  0  0  0
   -6.2820    1.3364    1.7379 C   0  0  0  0  0  0  0  0  0  0  0  0
   -4.9576    1.1125    1.3490 C   0  0  0  0  0  0  0  0  0  0  0  0
   -3.6356   -0.4141   -1.8888 C   0  0  0  0  0  0  0  0  0  0  0  0
   -3.5345   -1.6463   -2.1303 O   0  0  0  0  0  0  0  0  0  0  0  0
   -4.5362    0.3506   -2.6254 O   0  0  0  0  0  0  0  0  0  0  0  0
    6.2738    1.6250   -0.3629 H   0  0  0  0  0  0  0  0  0  0  0  0
    7.4429    0.3581    0.0613 H   0  0  0  0  0  0  0  0  0  0  0  0
    6.2241    0.8761    1.2876 H   0  0  0  0  0  0  0  0  0  0  0  0
    5.5098   -0.4332   -1.4158 H   0  0  0  0  0  0  0  0  0  0  0  0
    5.6254   -1.8363    1.3320 H   0  0  0  0  0  0  0  0  0  0  0  0
    5.3385   -2.5881   -0.2930 H   0  0  0  0  0  0  0  0  0  0  0  0
    6.9376   -1.9213    0.0958 H   0  0  0  0  0  0  0  0  0  0  0  0
    3.8395   -0.0206    1.1663 H   0  0  0  0  0  0  0  0  0  0  0  0
    3.1677   -2.1196    0.0302 H   0  0  0  0  0  0  0  0  0  0  0  0
    3.0897   -1.2825   -1.5608 H   0  0  0  0  0  0  0  0  0  0  0  0
    1.3279   -0.8054    0.9330 H   0  0  0  0  0  0  0  0  0  0  0  0
    0.8495   -1.6077   -0.6025 H   0  0  0  0  0  0  0  0  0  0  0  0
    1.2325    0.5176   -1.8653 H   0  0  0  0  0  0  0  0  0  0  0  0
    1.9045    1.7340    0.8987 H   0  0  0  0  0  0  0  0  0  0  0  0
    1.7808    2.6210   -0.6637 H   0  0  0  0  0  0  0  0  0  0  0  0
    3.6688    1.3501   -1.6066 H   0  0  0  0  0  0  0  0  0  0  0  0
    4.1108    2.1284   -0.0452 H   0  0  0  0  0  0  0  0  0  0  0  0
   -1.0743   -0.6326   -1.8450 H   0  0  0  0  0  0  0  0  0  0  0  0
   -3.0278    1.3028   -0.7662 H   0  0  0  0  0  0  0  0  0  0  0  0
   -2.8848   -1.5071    0.5244 H   0  0  0  0  0  0  0  0  0  0  0  0
   -2.4345    0.0112    1.3417 H   0  0  0  0  0  0  0  0  0  0  0  0
   -5.1495   -2.2413    0.7490 H   0  0  0  0  0  0  0  0  0  0  0  0
   -7.4832   -1.8309    1.4381 H   0  0  0  0  0  0  0  0  0  0  0  0
   -8.2166    0.4510    2.0696 H   0  0  0  0  0  0  0  0  0  0  0  0
   -6.6027    2.3318    2.0166 H   0  0  0  0  0  0  0  0  0  0  0  0
   -4.2621    1.9421    1.3331 H   0  0  0  0  0  0  0  0  0  0  0  0
   -4.6536    1.3419   -2.4529 H   0  0  0  0  0  0  0  0  0  0  0  0
  1  2  1  0
  2  3  1  0
  4  2  1  0
  4  5  1  0
  5  6  1  0
  6  7  1  0
  7  8  1  0
  8  9  1  0
  9  4  1  0
  7 10  1  0
 10 11  2  0
 10 12  1  0
 12 13  1  0
 13 14  1  0
 14 15  1  0
 15 16  2  0
 16 17  1  0
 17 18  2  0
 18 19  1  0
 19 20  2  0
 20 15  1  0
 13 21  1  0
 21 22  2  0
 21 23  1  0
  1 24  1  0
  1 25  1  0
  1 26  1  0
  2 27  1  0
  3 28  1  0
  3 29  1  0
  3 30  1  0
  4 31  1  1
  5 32  1  0
  5 33  1  0
  6 34  1  0
  6 35  1  0
  7 36  1  6
  8 37  1  0
  8 38  1  0
  9 39  1  0
  9 40  1  0
 12 41  1  0
 13 42  1  1
 14 43  1  0
 14 44  1  0
 16 45  1  0
 17 46  1  0
 18 47  1  0
 19 48  1  0
 20 49  1  0
 23 50  1  0
M  END
> <ID>
HT1467

> <Class>
1.0

> <Clusters>
94

> <Fold>
4

$$$$