
     RDKit          3D

 35 37  0  0  0  0  0  0  0  0999 V2000
   -4.0751    2.2641   -0.6344 O   0  0  0  0  0  0  0  0  0  0  0  0
   -3.7259    1.2700    0.2909 C   0  0  0  0  0  0  0  0  0  0  0  0
   -3.2937   -0.0119   -0.4374 C   0  0  1  0  0  0  0  0  0  0  0  0
   -2.1419    0.2538   -1.2104 O   0  0  0  0  0  0  0  0  0  0  0  0
   -1.0711   -0.5013   -0.6821 C   0  0  2  0  0  0  0  0  0  0  0  0
   -1.4915   -1.0864    0.6573 C   0  0  0  0  0  0  0  0  0  0  0  0
   -2.9856   -1.1412    0.5486 C   0  0  2  0  0  0  0  0  0  0  0  0
   -3.3728   -2.3796    0.0104 O   0  0  0  0  0  0  0  0  0  0  0  0
    0.1261    0.3358   -0.5304 N   0  0  0  0  0  0  0  0  0  0  0  0
    0.1870    1.6839   -0.5902 C   0  0  0  0  0  0  0  0  0  0  0  0
    1.4345    2.1609   -0.3955 N   0  0  0  0  0  0  0  0  0  0  0  0
    2.1904    1.0611   -0.2005 C   0  0  0  0  0  0  0  0  0  0  0  0
    3.6610    1.1213    0.0597 C   0  0  2  0  0  0  0  0  0  0  0  0
    4.3533    1.0303   -1.1578 O   0  0  0  0  0  0  0  0  0  0  0  0
    4.0862    0.0060    1.0197 C   0  0  0  0  0  0  0  0  0  0  0  0
    4.1495   -1.2818    0.3390 N   0  0  0  0  0  0  0  0  0  0  0  0
    3.1550   -1.9212   -0.2006 C   0  0  0  0  0  0  0  0  0  0  0  0
    1.8012   -1.4409   -0.1933 N   0  0  0  0  0  0  0  0  0  0  0  0
    1.3924   -0.0642   -0.2920 C   0  0  0  0  0  0  0  0  0  0  0  0
   -3.2282    2.6828   -0.9388 H   0  0  0  0  0  0  0  0  0  0  0  0
   -2.9128    1.6298    0.9634 H   0  0  0  0  0  0  0  0  0  0  0  0
   -4.6165    1.0545    0.9191 H   0  0  0  0  0  0  0  0  0  0  0  0
   -4.1195   -0.3165   -1.1181 H   0  0  0  0  0  0  0  0  0  0  0  0
   -0.8555   -1.3235   -1.3997 H   0  0  0  0  0  0  0  0  0  0  0  0
   -1.2055   -0.4034    1.4888 H   0  0  0  0  0  0  0  0  0  0  0  0
   -1.0462   -2.0892    0.8358 H   0  0  0  0  0  0  0  0  0  0  0  0
   -3.4555   -0.9942    1.5499 H   0  0  0  0  0  0  0  0  0  0  0  0
   -4.3541   -2.4501    0.1438 H   0  0  0  0  0  0  0  0  0  0  0  0
   -0.6674    2.3236   -0.7669 H   0  0  0  0  0  0  0  0  0  0  0  0
    3.8803    2.1018    0.5428 H   0  0  0  0  0  0  0  0  0  0  0  0
    5.2869    1.3157   -0.9766 H   0  0  0  0  0  0  0  0  0  0  0  0
    5.0987    0.2407    1.4112 H   0  0  0  0  0  0  0  0  0  0  0  0
    3.3979   -0.0557    1.8917 H   0  0  0  0  0  0  0  0  0  0  0  0
    3.3469   -2.9020   -0.6149 H   0  0  0  0  0  0  0  0  0  0  0  0
    1.0717   -2.1728   -0.3325 H   0  0  0  0  0  0  0  0  0  0  0  0
  1  2  1  0
  3  2  1  0
  3  4  1  0
  4  5  1  0
  5  6  1  0
  6  7  1  0
  7  3  1  0
  7  8  1  0
  5  9  1  0
  9 10  1  0
 10 11  2  0
 11 12  1  0
 12 13  1  0
 13 14  1  0
 13 15  1  0
 15 16  1  0
 16 17  2  0
 17 18  1  0
 18 19  1  0
 19  9  1  0
 19 12  2  0
  1 20  1  0
  2 21  1  0
  2 22  1  0
  3 23  1  6
  5 24  1  6
  6 25  1  0
  6 26  1  0
  7 27  1  1
  8 28  1  0
 10 29  1  0
 13 30  1  1
 14 31  1  0
 15 32  1  0
 15 33  1  0
 17 34  1  0
 18 35  1  0
M  END
> <ID>
HT1626

> <Class>
1.0

> <Clusters>
58

> <Fold>
4

$$$$