
     RDKit          3D

 88 88  0  0  0  0  0  0  0  0999 V2000
    9.3165    3.6732   -1.2475 C   0  0  0  0  0  0  0  0  0  0  0  0
    7.8381    4.0581   -1.2040 C   0  0  0  0  0  0  0  0  0  0  0  0
    7.1261    3.5502    0.0594 C   0  0  0  0  0  0  0  0  0  0  0  0
    6.9665    2.0191    0.0757 C   0  0  0  0  0  0  0  0  0  0  0  0
    6.2161    1.5218    1.3245 C   0  0  0  0  0  0  0  0  0  0  0  0
    4.6900    1.7228    1.2621 C   0  0  0  0  0  0  0  0  0  0  0  0
    4.0129    0.7674    0.2686 C   0  0  0  0  0  0  0  0  0  0  0  0
    2.4916    0.7430    0.4674 C   0  0  0  0  0  0  0  0  0  0  0  0
    1.8231   -0.1689   -0.5705 C   0  0  0  0  0  0  0  0  0  0  0  0
    0.3106   -0.3228   -0.3497 C   0  0  0  0  0  0  0  0  0  0  0  0
   -0.0263   -1.0752    0.9531 C   0  0  0  0  0  0  0  0  0  0  0  0
   -1.3825   -1.8188    0.9024 C   0  0  1  0  0  0  0  0  0  0  0  0
   -2.5815   -0.8934    0.6194 C   0  0  0  0  0  0  0  0  0  0  0  0
   -2.8968    0.0658    1.7851 C   0  0  2  0  0  0  0  0  0  0  0  0
   -3.4043   -0.6380    2.9092 O   0  0  0  0  0  0  0  0  0  0  0  0
   -4.6520    0.0913    2.8059 C   0  0  0  0  0  0  0  0  0  0  0  0
   -5.7314    0.1014    3.4528 O   0  0  0  0  0  0  0  0  0  0  0  0
   -4.1260    0.8103    1.6066 C   0  0  1  0  0  0  0  0  0  0  0  0
   -3.9829    2.3286    1.8337 C   0  0  0  0  0  0  0  0  0  0  0  0
   -5.3197    3.0732    1.6511 C   0  0  0  0  0  0  0  0  0  0  0  0
   -5.6875    3.3150    0.1726 C   0  0  0  0  0  0  0  0  0  0  0  0
   -4.9495    4.5130   -0.4541 C   0  0  0  0  0  0  0  0  0  0  0  0
   -5.6046    5.8537   -0.0957 C   0  0  0  0  0  0  0  0  0  0  0  0
   -4.8076    7.0218   -0.6685 C   0  0  0  0  0  0  0  0  0  0  0  0
   -1.3505   -2.8288   -0.1065 O   0  0  0  0  0  0  0  0  0  0  0  0
   -0.6195   -4.0198    0.0018 C   0  0  0  0  0  0  0  0  0  0  0  0
    0.0378   -4.2791    1.0473 O   0  0  0  0  0  0  0  0  0  0  0  0
   -0.5697   -4.9521   -1.1714 C   0  0  2  0  0  0  0  0  0  0  0  0
   -0.8086   -6.4212   -0.7596 C   0  0  0  0  0  0  0  0  0  0  0  0
   -2.1658   -6.6759   -0.0599 C   0  0  0  0  0  0  0  0  0  0  0  0
   -3.3583   -6.4305   -0.9997 C   0  0  0  0  0  0  0  0  0  0  0  0
   -2.2170   -8.1129    0.4753 C   0  0  0  0  0  0  0  0  0  0  0  0
    0.7400   -4.8302   -1.8167 N   0  0  0  0  0  0  0  0  0  0  0  0
    0.9296   -4.2664   -3.1196 C   0  0  0  0  0  0  0  0  0  0  0  0
   -0.0471   -3.8570   -3.8001 O   0  0  0  0  0  0  0  0  0  0  0  0
    9.4336    2.5811   -1.4223 H   0  0  0  0  0  0  0  0  0  0  0  0
    9.8120    4.2122   -2.0833 H   0  0  0  0  0  0  0  0  0  0  0  0
    9.8224    3.9569   -0.2988 H   0  0  0  0  0  0  0  0  0  0  0  0
    7.3281    3.6762   -2.1144 H   0  0  0  0  0  0  0  0  0  0  0  0
    7.7677    5.1685   -1.2219 H   0  0  0  0  0  0  0  0  0  0  0  0
    6.1230    4.0245    0.0892 H   0  0  0  0  0  0  0  0  0  0  0  0
    7.6871    3.8791    0.9636 H   0  0  0  0  0  0  0  0  0  0  0  0
    7.9740    1.5537    0.0910 H   0  0  0  0  0  0  0  0  0  0  0  0
    6.4588    1.6754   -0.8523 H   0  0  0  0  0  0  0  0  0  0  0  0
    6.4308    0.4392    1.4633 H   0  0  0  0  0  0  0  0  0  0  0  0
    6.6131    2.0381    2.2263 H   0  0  0  0  0  0  0  0  0  0  0  0
    4.4392    2.7702    0.9998 H   0  0  0  0  0  0  0  0  0  0  0  0
    4.2874    1.5357    2.2779 H   0  0  0  0  0  0  0  0  0  0  0  0
    4.2390    1.0896   -0.7696 H   0  0  0  0  0  0  0  0  0  0  0  0
    4.4072   -0.2633    0.4090 H   0  0  0  0  0  0  0  0  0  0  0  0
    2.2701    0.3749    1.4918 H   0  0  0  0  0  0  0  0  0  0  0  0
    2.0857    1.7721    0.3649 H   0  0  0  0  0  0  0  0  0  0  0  0
    1.9866    0.2614   -1.5835 H   0  0  0  0  0  0  0  0  0  0  0  0
    2.2981   -1.1745   -0.5536 H   0  0  0  0  0  0  0  0  0  0  0  0
   -0.0923   -0.8817   -1.2210 H   0  0  0  0  0  0  0  0  0  0  0  0
   -0.1721    0.6772   -0.3411 H   0  0  0  0  0  0  0  0  0  0  0  0
    0.7679   -1.8203    1.1632 H   0  0  0  0  0  0  0  0  0  0  0  0
   -0.0147   -0.3688    1.8064 H   0  0  0  0  0  0  0  0  0  0  0  0
   -1.5557   -2.3085    1.8870 H   0  0  0  0  0  0  0  0  0  0  0  0
   -3.4734   -1.5331    0.4231 H   0  0  0  0  0  0  0  0  0  0  0  0
   -2.4040   -0.3020   -0.3058 H   0  0  0  0  0  0  0  0  0  0  0  0
   -2.0251    0.6960    2.0741 H   0  0  0  0  0  0  0  0  0  0  0  0
   -4.6976    0.5436    0.6899 H   0  0  0  0  0  0  0  0  0  0  0  0
   -3.2255    2.7296    1.1276 H   0  0  0  0  0  0  0  0  0  0  0  0
   -3.6028    2.5216    2.8626 H   0  0  0  0  0  0  0  0  0  0  0  0
   -6.1327    2.4829    2.1267 H   0  0  0  0  0  0  0  0  0  0  0  0
   -5.2745    4.0388    2.1967 H   0  0  0  0  0  0  0  0  0  0  0  0
   -5.4634    2.4079   -0.4250 H   0  0  0  0  0  0  0  0  0  0  0  0
   -6.7866    3.4739    0.0947 H   0  0  0  0  0  0  0  0  0  0  0  0
   -3.8809    4.5196   -0.1468 H   0  0  0  0  0  0  0  0  0  0  0  0
   -4.9781    4.3977   -1.5600 H   0  0  0  0  0  0  0  0  0  0  0  0
   -5.6667    5.9787    1.0060 H   0  0  0  0  0  0  0  0  0  0  0  0
   -6.6349    5.8838   -0.5103 H   0  0  0  0  0  0  0  0  0  0  0  0
   -4.7216    6.9296   -1.7726 H   0  0  0  0  0  0  0  0  0  0  0  0
   -5.3227    7.9745   -0.4269 H   0  0  0  0  0  0  0  0  0  0  0  0
   -3.7910    7.0430   -0.2200 H   0  0  0  0  0  0  0  0  0  0  0  0
   -1.3659   -4.6530   -1.8840 H   0  0  0  0  0  0  0  0  0  0  0  0
    0.0150   -6.7386   -0.0819 H   0  0  0  0  0  0  0  0  0  0  0  0
   -0.7403   -7.0593   -1.6681 H   0  0  0  0  0  0  0  0  0  0  0  0
   -2.2624   -5.9950    0.8153 H   0  0  0  0  0  0  0  0  0  0  0  0
   -3.4305   -5.3585   -1.2782 H   0  0  0  0  0  0  0  0  0  0  0  0
   -4.3085   -6.7034   -0.4884 H   0  0  0  0  0  0  0  0  0  0  0  0
   -3.2634   -7.0458   -1.9221 H   0  0  0  0  0  0  0  0  0  0  0  0
   -2.1388   -8.8477   -0.3533 H   0  0  0  0  0  0  0  0  0  0  0  0
   -1.3824   -8.2871    1.1875 H   0  0  0  0  0  0  0  0  0  0  0  0
   -3.1697   -8.2871    1.0230 H   0  0  0  0  0  0  0  0  0  0  0  0
    1.5919   -5.1287   -1.2890 H   0  0  0  0  0  0  0  0  0  0  0  0
    1.9294   -4.1891   -3.5293 H   0  0  0  0  0  0  0  0  0  0  0  0
  1  2  1  0
  2  3  1  0
  3  4  1  0
  4  5  1  0
  5  6  1  0
  6  7  1  0
  7  8  1  0
  8  9  1  0
  9 10  1  0
 10 11  1  0
 11 12  1  0
 12 13  1  0
 14 13  1  0
 14 15  1  0
 15 16  1  0
 16 17  2  0
 16 18  1  0
 18 14  1  0
 18 19  1  0
 19 20  1  0
 20 21  1  0
 21 22  1  0
 22 23  1  0
 23 24  1  0
 12 25  1  0
 25 26  1  0
 26 27  2  0
 26 28  1  0
 28 29  1  0
 29 30  1  0
 30 31  1  0
 30 32  1  0
 28 33  1  0
 33 34  1  0
 34 35  2  0
  1 36  1  0
  1 37  1  0
  1 38  1  0
  2 39  1  0
  2 40  1  0
  3 41  1  0
  3 42  1  0
  4 43  1  0
  4 44  1  0
  5 45  1  0
  5 46  1  0
  6 47  1  0
  6 48  1  0
  7 49  1  0
  7 50  1  0
  8 51  1  0
  8 52  1  0
  9 53  1  0
  9 54  1  0
 10 55  1  0
 10 56  1  0
 11 57  1  0
 11 58  1  0
 12 59  1  1
 13 60  1  0
 13 61  1  0
 14 62  1  1
 18 63  1  6
 19 64  1  0
 19 65  1  0
 20 66  1  0
 20 67  1  0
 21 68  1  0
 21 69  1  0
 22 70  1  0
 22 71  1  0
 23 72  1  0
 23 73  1  0
 24 74  1  0
 24 75  1  0
 24 76  1  0
 28 77  1  6
 29 78  1  0
 29 79  1  0
 30 80  1  0
 31 81  1  0
 31 82  1  0
 31 83  1  0
 32 84  1  0
 32 85  1  0
 32 86  1  0
 33 87  1  0
 34 88  1  0
M  END
> <ID>
HT1543

> <Class>
1.0

> <Clusters>
270

> <Fold>
4

$$$$