
     RDKit          3D

 52 53  0  0  0  0  0  0  0  0999 V2000
    7.0908   -1.0397    1.0085 C   0  0  0  0  0  0  0  0  0  0  0  0
    7.0071   -0.0464   -0.1492 C   0  0  0  0  0  0  0  0  0  0  0  0
    5.8864    0.9797    0.0514 C   0  0  0  0  0  0  0  0  0  0  0  0
    4.5738    0.3193    0.0601 N   0  0  0  0  0  0  0  0  0  0  0  0
    3.4788    1.2700    0.3254 C   0  0  0  0  0  0  0  0  0  0  0  0
    2.9585    1.9711   -0.9504 C   0  0  0  0  0  0  0  0  0  0  0  0
    2.2459    3.1207   -0.5711 O   0  0  0  0  0  0  0  0  0  0  0  0
    2.0469    1.0611   -1.7943 C   0  0  0  0  0  0  0  0  0  0  0  0
    0.8337    0.7725   -1.0940 O   0  0  0  0  0  0  0  0  0  0  0  0
    0.3897   -0.4975   -0.6810 C   0  0  0  0  0  0  0  0  0  0  0  0
    1.2859   -1.5718   -0.5031 C   0  0  0  0  0  0  0  0  0  0  0  0
    0.8281   -2.8137   -0.0629 C   0  0  0  0  0  0  0  0  0  0  0  0
   -0.5224   -3.0015    0.2171 C   0  0  0  0  0  0  0  0  0  0  0  0
   -1.4228   -1.9480    0.0587 C   0  0  0  0  0  0  0  0  0  0  0  0
   -0.9862   -0.6857   -0.3927 C   0  0  0  0  0  0  0  0  0  0  0  0
   -1.9652    0.4239   -0.5812 C   0  0  0  0  0  0  0  0  0  0  0  0
   -1.7119    1.3504   -1.3984 O   0  0  0  0  0  0  0  0  0  0  0  0
   -3.2812    0.4693    0.1482 C   0  0  0  0  0  0  0  0  0  0  0  0
   -4.4100   -0.0862   -0.7300 C   0  0  0  0  0  0  0  0  0  0  0  0
   -5.7358   -0.0111   -0.0168 C   0  0  0  0  0  0  0  0  0  0  0  0
   -5.9968   -0.8453    1.0851 C   0  0  0  0  0  0  0  0  0  0  0  0
   -7.2243   -0.7708    1.7508 C   0  0  0  0  0  0  0  0  0  0  0  0
   -8.2021    0.1289    1.3191 C   0  0  0  0  0  0  0  0  0  0  0  0
   -7.9543    0.9563    0.2200 C   0  0  0  0  0  0  0  0  0  0  0  0
   -6.7267    0.8877   -0.4470 C   0  0  0  0  0  0  0  0  0  0  0  0
    6.1471   -1.6163    1.0967 H   0  0  0  0  0  0  0  0  0  0  0  0
    7.2868   -0.5055    1.9635 H   0  0  0  0  0  0  0  0  0  0  0  0
    7.9227   -1.7517    0.8224 H   0  0  0  0  0  0  0  0  0  0  0  0
    7.9763    0.4916   -0.2288 H   0  0  0  0  0  0  0  0  0  0  0  0
    6.8458   -0.5989   -1.1004 H   0  0  0  0  0  0  0  0  0  0  0  0
    5.9395    1.7222   -0.7733 H   0  0  0  0  0  0  0  0  0  0  0  0
    6.0582    1.5127    1.0132 H   0  0  0  0  0  0  0  0  0  0  0  0
    4.4294   -0.1568   -0.8595 H   0  0  0  0  0  0  0  0  0  0  0  0
    3.8034    2.0381    1.0631 H   0  0  0  0  0  0  0  0  0  0  0  0
    2.6489    0.7230    0.8185 H   0  0  0  0  0  0  0  0  0  0  0  0
    3.8303    2.2731   -1.5742 H   0  0  0  0  0  0  0  0  0  0  0  0
    2.1883    3.7057   -1.3723 H   0  0  0  0  0  0  0  0  0  0  0  0
    1.7784    1.6040   -2.7256 H   0  0  0  0  0  0  0  0  0  0  0  0
    2.5766    0.1478   -2.1276 H   0  0  0  0  0  0  0  0  0  0  0  0
    2.3463   -1.4556   -0.6647 H   0  0  0  0  0  0  0  0  0  0  0  0
    1.5263   -3.6295    0.0737 H   0  0  0  0  0  0  0  0  0  0  0  0
   -0.8725   -3.9657    0.5632 H   0  0  0  0  0  0  0  0  0  0  0  0
   -2.4631   -2.1357    0.2802 H   0  0  0  0  0  0  0  0  0  0  0  0
   -3.2111   -0.0912    1.1043 H   0  0  0  0  0  0  0  0  0  0  0  0
   -3.5093    1.5266    0.4082 H   0  0  0  0  0  0  0  0  0  0  0  0
   -4.2052   -1.1442   -1.0027 H   0  0  0  0  0  0  0  0  0  0  0  0
   -4.4494    0.4965   -1.6777 H   0  0  0  0  0  0  0  0  0  0  0  0
   -5.2487   -1.5493    1.4297 H   0  0  0  0  0  0  0  0  0  0  0  0
   -7.4183   -1.4123    2.6014 H   0  0  0  0  0  0  0  0  0  0  0  0
   -9.1511    0.1861    1.8363 H   0  0  0  0  0  0  0  0  0  0  0  0
   -8.7123    1.6532   -0.1123 H   0  0  0  0  0  0  0  0  0  0  0  0
   -6.5491    1.5392   -1.2935 H   0  0  0  0  0  0  0  0  0  0  0  0
  1  2  1  0
  2  3  1  0
  3  4  1  0
  4  5  1  0
  5  6  1  0
  6  7  1  0
  6  8  1  0
  8  9  1  0
  9 10  1  0
 10 11  2  0
 11 12  1  0
 12 13  2  0
 13 14  1  0
 14 15  2  0
 15 10  1  0
 15 16  1  0
 16 17  2  0
 16 18  1  0
 18 19  1  0
 19 20  1  0
 20 21  2  0
 21 22  1  0
 22 23  2  0
 23 24  1  0
 24 25  2  0
 25 20  1  0
  1 26  1  0
  1 27  1  0
  1 28  1  0
  2 29  1  0
  2 30  1  0
  3 31  1  0
  3 32  1  0
  4 33  1  0
  5 34  1  0
  5 35  1  0
  6 36  1  0
  7 37  1  0
  8 38  1  0
  8 39  1  0
 11 40  1  0
 12 41  1  0
 13 42  1  0
 14 43  1  0
 18 44  1  0
 18 45  1  0
 19 46  1  0
 19 47  1  0
 21 48  1  0
 22 49  1  0
 23 50  1  0
 24 51  1  0
 25 52  1  0
M  END
> <ID>
HT1756

> <Class>
1.0

> <Clusters>
23

> <Fold>
4

$$$$