
     RDKit          3D

 42 43  0  0  0  0  0  0  0  0999 V2000
    6.0956    1.3261   -0.9830 C   0  0  0  0  0  0  0  0  0  0  0  0
    4.9796    0.4014   -0.5962 C   0  0  0  0  0  0  0  0  0  0  0  0
    3.6821    0.6383   -1.0762 C   0  0  0  0  0  0  0  0  0  0  0  0
    2.6334   -0.2159   -0.7243 C   0  0  0  0  0  0  0  0  0  0  0  0
    2.8698   -1.3142    0.1132 C   0  0  0  0  0  0  0  0  0  0  0  0
    4.1661   -1.5576    0.5884 C   0  0  0  0  0  0  0  0  0  0  0  0
    5.2164   -0.7047    0.2354 C   0  0  0  0  0  0  0  0  0  0  0  0
    1.5412   -2.3796    0.5576 S   0  0  0  0  0  0  0  0  0  0  0  0
    1.8483   -3.1043    1.8390 O   0  0  0  0  0  0  0  0  0  0  0  0
    1.3298   -3.3861   -0.5382 O   0  0  0  0  0  0  0  0  0  0  0  0
    0.0958   -1.4477    0.7687 N   0  0  0  0  0  0  0  0  0  0  0  0
    0.0053   -0.4174    1.7617 C   0  0  0  0  0  0  0  0  0  0  0  0
    0.9340   -0.2646    2.6004 O   0  0  0  0  0  0  0  0  0  0  0  0
   -1.1313    0.4505    1.8088 N   0  0  0  0  0  0  0  0  0  0  0  0
   -2.1294    0.3807    0.8167 N   0  0  0  0  0  0  0  0  0  0  0  0
   -3.4424    0.1888    1.4603 C   0  0  0  0  0  0  0  0  0  0  0  0
   -4.2638   -0.8076    0.6379 C   0  0  0  0  0  0  0  0  0  0  0  0
   -4.7754   -0.2260   -0.6860 C   0  0  0  0  0  0  0  0  0  0  0  0
   -3.6617    0.3385   -1.5860 C   0  0  0  0  0  0  0  0  0  0  0  0
   -3.1446    1.6988   -1.0858 C   0  0  0  0  0  0  0  0  0  0  0  0
   -2.0541    1.6071    0.0017 C   0  0  0  0  0  0  0  0  0  0  0  0
    5.8681    2.3540   -0.6268 H   0  0  0  0  0  0  0  0  0  0  0  0
    6.2013    1.3408   -2.0895 H   0  0  0  0  0  0  0  0  0  0  0  0
    7.0641    1.0042   -0.5419 H   0  0  0  0  0  0  0  0  0  0  0  0
    3.4829    1.4863   -1.7215 H   0  0  0  0  0  0  0  0  0  0  0  0
    1.6374   -0.0204   -1.1050 H   0  0  0  0  0  0  0  0  0  0  0  0
    4.3658   -2.4071    1.2289 H   0  0  0  0  0  0  0  0  0  0  0  0
    6.2114   -0.9061    0.6148 H   0  0  0  0  0  0  0  0  0  0  0  0
   -0.7000   -1.6195    0.1150 H   0  0  0  0  0  0  0  0  0  0  0  0
   -1.1767    1.1893    2.5497 H   0  0  0  0  0  0  0  0  0  0  0  0
   -3.3206   -0.2526    2.4763 H   0  0  0  0  0  0  0  0  0  0  0  0
   -3.9938    1.1480    1.5898 H   0  0  0  0  0  0  0  0  0  0  0  0
   -5.1420   -1.1283    1.2389 H   0  0  0  0  0  0  0  0  0  0  0  0
   -3.6521   -1.7139    0.4348 H   0  0  0  0  0  0  0  0  0  0  0  0
   -5.2908   -1.0413   -1.2384 H   0  0  0  0  0  0  0  0  0  0  0  0
   -5.5392    0.5562   -0.4822 H   0  0  0  0  0  0  0  0  0  0  0  0
   -2.8288   -0.3912   -1.6927 H   0  0  0  0  0  0  0  0  0  0  0  0
   -4.0929    0.4892   -2.5995 H   0  0  0  0  0  0  0  0  0  0  0  0
   -2.7225    2.2567   -1.9507 H   0  0  0  0  0  0  0  0  0  0  0  0
   -3.9927    2.3129   -0.7102 H   0  0  0  0  0  0  0  0  0  0  0  0
   -2.1112    2.5124    0.6485 H   0  0  0  0  0  0  0  0  0  0  0  0
   -1.0627    1.6259   -0.5044 H   0  0  0  0  0  0  0  0  0  0  0  0
  1  2  1  0
  2  3  2  0
  3  4  1  0
  4  5  2  0
  5  6  1  0
  6  7  2  0
  7  2  1  0
  5  8  1  0
  8  9  2  0
  8 10  2  0
  8 11  1  0
 11 12  1  0
 12 13  2  0
 12 14  1  0
 14 15  1  0
 15 16  1  0
 16 17  1  0
 17 18  1  0
 18 19  1  0
 19 20  1  0
 20 21  1  0
 21 15  1  0
  1 22  1  0
  1 23  1  0
  1 24  1  0
  3 25  1  0
  4 26  1  0
  6 27  1  0
  7 28  1  0
 11 29  1  0
 14 30  1  0
 16 31  1  0
 16 32  1  0
 17 33  1  0
 17 34  1  0
 18 35  1  0
 18 36  1  0
 19 37  1  0
 19 38  1  0
 20 39  1  0
 20 40  1  0
 21 41  1  0
 21 42  1  0
M  END
> <ID>
HT2079

> <Class>
1.0

> <Clusters>
230

> <Fold>
4

$$$$