
     RDKit          3D

 45 46  0  0  0  0  0  0  0  0999 V2000
   -1.9661    2.6509    0.1526 C   0  0  0  0  0  0  0  0  0  0  0  0
   -1.6769    1.1866    0.5264 C   0  0  0  0  0  0  0  0  0  0  0  0
   -2.7879    0.7073    1.4759 C   0  0  0  0  0  0  0  0  0  0  0  0
   -1.5779    0.3141   -0.7625 C   0  0  0  0  0  0  0  0  0  0  0  0
   -0.6062   -0.9158   -0.8133 C   0  0  0  0  0  0  0  0  0  0  0  0
   -0.8678   -2.0084    0.1652 N   0  0  0  0  0  0  0  0  0  0  0  0
   -0.4248   -1.8288    1.5574 C   0  0  0  0  0  0  0  0  0  0  0  0
   -2.1990   -2.6278    0.0429 C   0  0  0  0  0  0  0  0  0  0  0  0
    0.9300   -0.5999   -1.0325 C   0  0  0  0  0  0  0  0  0  0  0  0
    1.2441   -0.2233   -2.5070 C   0  0  0  0  0  0  0  0  0  0  0  0
    1.9860   -1.5311   -2.7088 C   0  0  0  0  0  0  0  0  0  0  0  0
    1.7604   -1.8907   -1.2512 C   0  0  0  0  0  0  0  0  0  0  0  0
    1.5607    0.3981   -0.0503 C   0  0  0  0  0  0  0  0  0  0  0  0
    2.2577   -0.0292    1.1002 C   0  0  0  0  0  0  0  0  0  0  0  0
    2.8173    0.8980    1.9838 C   0  0  0  0  0  0  0  0  0  0  0  0
    2.6999    2.2664    1.7338 C   0  0  0  0  0  0  0  0  0  0  0  0
    3.3990    3.4269    2.8477 Cl  0  0  0  0  0  0  0  0  0  0  0  0
    2.0249    2.7088    0.5952 C   0  0  0  0  0  0  0  0  0  0  0  0
    1.4645    1.7855   -0.2909 C   0  0  0  0  0  0  0  0  0  0  0  0
   -1.1632    3.0600   -0.4940 H   0  0  0  0  0  0  0  0  0  0  0  0
   -2.0131    3.2823    1.0658 H   0  0  0  0  0  0  0  0  0  0  0  0
   -2.9327    2.7319   -0.3900 H   0  0  0  0  0  0  0  0  0  0  0  0
   -0.7232    1.1891    1.0811 H   0  0  0  0  0  0  0  0  0  0  0  0
   -3.7673    0.6717    0.9523 H   0  0  0  0  0  0  0  0  0  0  0  0
   -2.8776    1.3984    2.3413 H   0  0  0  0  0  0  0  0  0  0  0  0
   -2.5686   -0.2903    1.8904 H   0  0  0  0  0  0  0  0  0  0  0  0
   -1.2781    0.9672   -1.6111 H   0  0  0  0  0  0  0  0  0  0  0  0
   -2.5992   -0.0273   -1.0401 H   0  0  0  0  0  0  0  0  0  0  0  0
   -0.8931   -1.3761   -1.7872 H   0  0  0  0  0  0  0  0  0  0  0  0
   -1.1803   -2.1912    2.2885 H   0  0  0  0  0  0  0  0  0  0  0  0
   -0.2014   -0.7803    1.8021 H   0  0  0  0  0  0  0  0  0  0  0  0
    0.4912   -2.4319    1.7176 H   0  0  0  0  0  0  0  0  0  0  0  0
   -2.2406   -3.5627    0.6419 H   0  0  0  0  0  0  0  0  0  0  0  0
   -2.4012   -2.9115   -1.0117 H   0  0  0  0  0  0  0  0  0  0  0  0
   -2.9982   -1.9439    0.3891 H   0  0  0  0  0  0  0  0  0  0  0  0
    0.3583   -0.1353   -3.1730 H   0  0  0  0  0  0  0  0  0  0  0  0
    1.9429    0.6319   -2.6365 H   0  0  0  0  0  0  0  0  0  0  0  0
    3.0605   -1.3841   -2.9557 H   0  0  0  0  0  0  0  0  0  0  0  0
    1.4526   -2.2173   -3.4026 H   0  0  0  0  0  0  0  0  0  0  0  0
    1.1869   -2.8376   -1.1502 H   0  0  0  0  0  0  0  0  0  0  0  0
    2.7319   -1.9287   -0.7153 H   0  0  0  0  0  0  0  0  0  0  0  0
    2.3630   -1.0785    1.3330 H   0  0  0  0  0  0  0  0  0  0  0  0
    3.3406    0.5498    2.8652 H   0  0  0  0  0  0  0  0  0  0  0  0
    1.9303    3.7686    0.3958 H   0  0  0  0  0  0  0  0  0  0  0  0
    0.9416    2.1583   -1.1611 H   0  0  0  0  0  0  0  0  0  0  0  0
  1  2  1  0
  2  3  1  0
  2  4  1  0
  4  5  1  0
  5  6  1  0
  6  7  1  0
  6  8  1  0
  5  9  1  0
  9 10  1  0
 10 11  1  0
 11 12  1  0
 12  9  1  0
  9 13  1  0
 13 14  2  0
 14 15  1  0
 15 16  2  0
 16 17  1  0
 16 18  1  0
 18 19  2  0
 19 13  1  0
  1 20  1  0
  1 21  1  0
  1 22  1  0
  2 23  1  0
  3 24  1  0
  3 25  1  0
  3 26  1  0
  4 27  1  0
  4 28  1  0
  5 29  1  0
  7 30  1  0
  7 31  1  0
  7 32  1  0
  8 33  1  0
  8 34  1  0
  8 35  1  0
 10 36  1  0
 10 37  1  0
 11 38  1  0
 11 39  1  0
 12 40  1  0
 12 41  1  0
 14 42  1  0
 15 43  1  0
 18 44  1  0
 19 45  1  0
M  END
> <ID>
HT1884

> <Class>
1.0

> <Clusters>
54

> <Fold>
4

$$$$