
     RDKit          3D

 29 29  0  0  0  0  0  0  0  0999 V2000
    4.6268   -0.9367   -0.3451 C   0  0  0  0  0  0  0  0  0  0  0  0
    3.3399   -0.1649   -0.6078 C   0  0  0  0  0  0  0  0  0  0  0  0
    1.9557   -0.9273    0.2227 S   0  0  0  0  0  0  0  0  0  0  0  0
    1.7800   -2.3343   -0.2766 O   0  0  0  0  0  0  0  0  0  0  0  0
    2.2064   -0.9494    1.7048 O   0  0  0  0  0  0  0  0  0  0  0  0
    0.4818    0.0189   -0.1206 C   0  0  0  0  0  0  0  0  0  0  0  0
   -0.7373   -0.6008    0.5648 C   0  0  0  0  0  0  0  0  0  0  0  0
   -1.9346    0.2078    0.3054 N   0  0  0  0  0  0  0  0  0  0  0  0
   -2.9095   -0.0514   -0.6000 C   0  0  0  0  0  0  0  0  0  0  0  0
   -2.9379   -1.2492   -1.4973 C   0  0  0  0  0  0  0  0  0  0  0  0
   -3.8724    0.8963   -0.6271 N   0  0  0  0  0  0  0  0  0  0  0  0
   -3.4878    1.7959    0.2983 C   0  0  0  0  0  0  0  0  0  0  0  0
   -2.3058    1.3799    0.8698 C   0  0  0  0  0  0  0  0  0  0  0  0
   -1.6030    2.0894    1.9036 N   0  0  0  0  0  0  0  0  0  0  0  0
   -0.6006    1.6015    2.4622 O   0  0  0  0  0  0  0  0  0  0  0  0
   -2.0677    3.3134    2.3252 O   0  0  0  0  0  0  0  0  0  0  0  0
    4.5350   -1.9780   -0.7202 H   0  0  0  0  0  0  0  0  0  0  0  0
    4.8496   -0.9556    0.7427 H   0  0  0  0  0  0  0  0  0  0  0  0
    5.4699   -0.4424   -0.8719 H   0  0  0  0  0  0  0  0  0  0  0  0
    3.4520    0.8779   -0.2430 H   0  0  0  0  0  0  0  0  0  0  0  0
    3.1388   -0.1402   -1.6997 H   0  0  0  0  0  0  0  0  0  0  0  0
    0.6369    1.0598    0.2305 H   0  0  0  0  0  0  0  0  0  0  0  0
    0.3180    0.0411   -1.2190 H   0  0  0  0  0  0  0  0  0  0  0  0
   -0.5760   -0.7040    1.6577 H   0  0  0  0  0  0  0  0  0  0  0  0
   -0.8793   -1.6311    0.1757 H   0  0  0  0  0  0  0  0  0  0  0  0
   -3.7881   -1.1769   -2.2079 H   0  0  0  0  0  0  0  0  0  0  0  0
   -1.9933   -1.3068   -2.0774 H   0  0  0  0  0  0  0  0  0  0  0  0
   -3.0580   -2.1693   -0.8886 H   0  0  0  0  0  0  0  0  0  0  0  0
   -4.0397    2.6948    0.5388 H   0  0  0  0  0  0  0  0  0  0  0  0
  1  2  1  0
  2  3  1  0
  3  4  2  0
  3  5  2  0
  3  6  1  0
  6  7  1  0
  7  8  1  0
  8  9  1  0
  9 10  1  0
  9 11  2  0
 11 12  1  0
 12 13  2  0
 13  8  1  0
 13 14  1  0
 14 15  2  0
 14 16  1  0
  1 17  1  0
  1 18  1  0
  1 19  1  0
  2 20  1  0
  2 21  1  0
  6 22  1  0
  6 23  1  0
  7 24  1  0
  7 25  1  0
 10 26  1  0
 10 27  1  0
 10 28  1  0
 12 29  1  0
M  CHG  2  14   1  16  -1
M  END
> <ID>
HT2065

> <Class>
1.0

> <Clusters>
170

> <Fold>
4

$$$$