
     RDKit          3D

 54 58  0  0  0  0  0  0  0  0999 V2000
    5.0422    1.3000   -2.1367 C   0  0  0  0  0  0  0  0  0  0  0  0
    5.2508   -0.1976   -1.8826 C   0  0  0  0  0  0  0  0  0  0  0  0
    5.2513   -0.5837   -0.3697 C   0  0  1  0  0  0  0  0  0  0  0  0
    5.4226   -1.9751   -0.2345 O   0  0  0  0  0  0  0  0  0  0  0  0
    6.4514    0.0697    0.2805 C   0  0  0  0  0  0  0  0  0  0  0  0
    7.6082   -0.1730   -0.1571 O   0  0  0  0  0  0  0  0  0  0  0  0
    6.3102    0.9767    1.3258 O   0  0  0  0  0  0  0  0  0  0  0  0
    5.1940    0.9743    2.2021 C   0  0  0  0  0  0  0  0  0  0  0  0
    3.9156    0.6119    1.4956 C   0  0  0  0  0  0  0  0  0  0  0  0
    3.9368   -0.1734    0.3083 C   0  0  0  0  0  0  0  0  0  0  0  0
    2.7081   -0.6052   -0.2419 C   0  0  0  0  0  0  0  0  0  0  0  0
    1.5257   -0.2180    0.3750 C   0  0  0  0  0  0  0  0  0  0  0  0
    1.5242    0.5371    1.4916 N   0  0  0  0  0  0  0  0  0  0  0  0
    0.1490    0.7887    1.9439 C   0  0  0  0  0  0  0  0  0  0  0  0
   -0.6623    0.0606    0.9120 C   0  0  0  0  0  0  0  0  0  0  0  0
   -2.0415   -0.0618    0.7894 C   0  0  0  0  0  0  0  0  0  0  0  0
   -2.5650   -0.8106   -0.2985 C   0  0  0  0  0  0  0  0  0  0  0  0
   -3.9624   -1.0018   -0.5088 C   0  0  0  0  0  0  0  0  0  0  0  0
   -5.0274   -0.4505    0.4255 C   0  0  0  0  0  0  0  0  0  0  0  0
   -5.6684    0.7466   -0.1586 N   0  0  0  0  0  0  0  0  0  0  0  0
   -4.7842    1.9204   -0.0605 C   0  0  0  0  0  0  0  0  0  0  0  0
   -6.9367    1.0284    0.5328 C   0  0  0  0  0  0  0  0  0  0  0  0
   -4.3934   -1.7152   -1.6502 C   0  0  0  0  0  0  0  0  0  0  0  0
   -5.7574   -1.8813   -1.8973 O   0  0  0  0  0  0  0  0  0  0  0  0
   -3.4645   -2.2614   -2.5421 C   0  0  0  0  0  0  0  0  0  0  0  0
   -2.0996   -2.1046   -2.3287 C   0  0  0  0  0  0  0  0  0  0  0  0
   -1.6367   -1.3862   -1.2275 C   0  0  0  0  0  0  0  0  0  0  0  0
   -0.2903   -1.2325   -1.0573 N   0  0  0  0  0  0  0  0  0  0  0  0
    0.1696   -0.5252   -0.0008 C   0  0  0  0  0  0  0  0  0  0  0  0
    2.6747    0.9525    2.0831 C   0  0  0  0  0  0  0  0  0  0  0  0
    2.6273    1.6263    3.1487 O   0  0  0  0  0  0  0  0  0  0  0  0
    5.0712    1.4956   -3.2293 H   0  0  0  0  0  0  0  0  0  0  0  0
    5.8439    1.8975   -1.6546 H   0  0  0  0  0  0  0  0  0  0  0  0
    4.0555    1.6311   -1.7508 H   0  0  0  0  0  0  0  0  0  0  0  0
    4.4635   -0.7565   -2.4304 H   0  0  0  0  0  0  0  0  0  0  0  0
    6.2148   -0.5027   -2.3459 H   0  0  0  0  0  0  0  0  0  0  0  0
    4.7152   -2.4329   -0.7592 H   0  0  0  0  0  0  0  0  0  0  0  0
    5.1143    1.9852    2.6549 H   0  0  0  0  0  0  0  0  0  0  0  0
    5.3721    0.2399    3.0159 H   0  0  0  0  0  0  0  0  0  0  0  0
    2.6650   -1.2278   -1.1250 H   0  0  0  0  0  0  0  0  0  0  0  0
   -0.0762    1.8764    1.9257 H   0  0  0  0  0  0  0  0  0  0  0  0
   -0.0180    0.3542    2.9526 H   0  0  0  0  0  0  0  0  0  0  0  0
   -2.6580    0.4360    1.5199 H   0  0  0  0  0  0  0  0  0  0  0  0
   -4.6596   -0.2534    1.4519 H   0  0  0  0  0  0  0  0  0  0  0  0
   -5.7847   -1.2542    0.5689 H   0  0  0  0  0  0  0  0  0  0  0  0
   -3.8572    1.7552   -0.6482 H   0  0  0  0  0  0  0  0  0  0  0  0
   -4.5156    2.1390    0.9970 H   0  0  0  0  0  0  0  0  0  0  0  0
   -5.2817    2.8136   -0.4965 H   0  0  0  0  0  0  0  0  0  0  0  0
   -6.7728    1.2055    1.6196 H   0  0  0  0  0  0  0  0  0  0  0  0
   -7.6397    0.1772    0.4052 H   0  0  0  0  0  0  0  0  0  0  0  0
   -7.4273    1.9217    0.0893 H   0  0  0  0  0  0  0  0  0  0  0  0
   -6.0948   -2.3874   -2.7078 H   0  0  0  0  0  0  0  0  0  0  0  0
   -3.8043   -2.8126   -3.4098 H   0  0  0  0  0  0  0  0  0  0  0  0
   -1.3976   -2.5367   -3.0316 H   0  0  0  0  0  0  0  0  0  0  0  0
  1  2  1  0
  2  3  1  0
  3  4  1  6
  3  5  1  0
  5  6  2  0
  5  7  1  0
  7  8  1  0
  8  9  1  0
  9 10  2  0
 10  3  1  0
 10 11  1  0
 11 12  2  0
 12 13  1  0
 13 14  1  0
 14 15  1  0
 15 16  2  0
 16 17  1  0
 17 18  2  0
 18 19  1  0
 19 20  1  0
 20 21  1  0
 20 22  1  0
 18 23  1  0
 23 24  1  0
 23 25  2  0
 25 26  1  0
 26 27  2  0
 27 17  1  0
 27 28  1  0
 28 29  2  0
 29 12  1  0
 29 15  1  0
 13 30  1  0
 30  9  1  0
 30 31  2  0
  1 32  1  0
  1 33  1  0
  1 34  1  0
  2 35  1  0
  2 36  1  0
  4 37  1  0
  8 38  1  0
  8 39  1  0
 11 40  1  0
 14 41  1  0
 14 42  1  0
 16 43  1  0
 19 44  1  0
 19 45  1  0
 21 46  1  0
 21 47  1  0
 21 48  1  0
 22 49  1  0
 22 50  1  0
 22 51  1  0
 24 52  1  0
 25 53  1  0
 26 54  1  0
M  END
> <ID>
HT2091

> <Class>
1.0

> <Clusters>
241

> <Fold>
4

$$$$