
     RDKit          3D

 31 33  0  0  0  0  0  0  0  0999 V2000
    1.3109    0.5006   -2.5663 Cl  0  0  0  0  0  0  0  0  0  0  0  0
    2.2590    0.3161   -1.0930 C   0  0  0  0  0  0  0  0  0  0  0  0
    3.5218    0.9205   -1.0462 C   0  0  0  0  0  0  0  0  0  0  0  0
    4.3127    0.8189    0.1000 C   0  0  0  0  0  0  0  0  0  0  0  0
    3.8463    0.1142    1.2102 C   0  0  0  0  0  0  0  0  0  0  0  0
    2.5889   -0.4929    1.1763 C   0  0  0  0  0  0  0  0  0  0  0  0
    1.7834   -0.4058    0.0274 C   0  0  0  0  0  0  0  0  0  0  0  0
    0.4239   -1.0644    0.0477 C   0  0  0  0  0  0  0  0  0  0  0  0
   -0.4936   -0.3332    0.9497 N   0  0  0  0  0  0  0  0  0  0  0  0
   -1.6255   -1.1810    1.3994 C   0  0  0  0  0  0  0  0  0  0  0  0
   -2.5729   -1.5875    0.2480 C   0  0  0  0  0  0  0  0  0  0  0  0
   -2.7811   -0.4451   -0.6930 C   0  0  0  0  0  0  0  0  0  0  0  0
   -3.8551   -0.3809   -1.9817 S   0  0  0  0  0  0  0  0  0  0  0  0
   -3.3893    1.1501   -2.5152 C   0  0  0  0  0  0  0  0  0  0  0  0
   -2.3734    1.6189   -1.6885 C   0  0  0  0  0  0  0  0  0  0  0  0
   -2.0262    0.7124   -0.6798 C   0  0  0  0  0  0  0  0  0  0  0  0
   -0.9743    0.9437    0.3662 C   0  0  0  0  0  0  0  0  0  0  0  0
    3.8916    1.4739   -1.9002 H   0  0  0  0  0  0  0  0  0  0  0  0
    5.2869    1.2896    0.1285 H   0  0  0  0  0  0  0  0  0  0  0  0
    4.4591    0.0394    2.0993 H   0  0  0  0  0  0  0  0  0  0  0  0
    2.2398   -1.0323    2.0485 H   0  0  0  0  0  0  0  0  0  0  0  0
   -0.0074   -1.1612   -0.9702 H   0  0  0  0  0  0  0  0  0  0  0  0
    0.5691   -2.1061    0.4120 H   0  0  0  0  0  0  0  0  0  0  0  0
   -2.2100   -0.6239    2.1647 H   0  0  0  0  0  0  0  0  0  0  0  0
   -1.2433   -2.0938    1.9063 H   0  0  0  0  0  0  0  0  0  0  0  0
   -3.5507   -1.9012    0.6711 H   0  0  0  0  0  0  0  0  0  0  0  0
   -2.1429   -2.4435   -0.3141 H   0  0  0  0  0  0  0  0  0  0  0  0
   -3.8063    1.6796   -3.3610 H   0  0  0  0  0  0  0  0  0  0  0  0
   -1.8965    2.5812   -1.8197 H   0  0  0  0  0  0  0  0  0  0  0  0
   -0.1313    1.5258   -0.0625 H   0  0  0  0  0  0  0  0  0  0  0  0
   -1.4136    1.5676    1.1737 H   0  0  0  0  0  0  0  0  0  0  0  0
  1  2  1  0
  2  3  2  0
  3  4  1  0
  4  5  2  0
  5  6  1  0
  6  7  2  0
  7  2  1  0
  7  8  1  0
  8  9  1  0
  9 10  1  0
 10 11  1  0
 11 12  1  0
 12 13  1  0
 13 14  1  0
 14 15  2  0
 15 16  1  0
 16 12  2  0
 16 17  1  0
 17  9  1  0
  3 18  1  0
  4 19  1  0
  5 20  1  0
  6 21  1  0
  8 22  1  0
  8 23  1  0
 10 24  1  0
 10 25  1  0
 11 26  1  0
 11 27  1  0
 14 28  1  0
 15 29  1  0
 17 30  1  0
 17 31  1  0
M  END
> <ID>
HT2058

> <Class>
1.0

> <Clusters>
61

> <Fold>
4

$$$$