
     RDKit          3D

 43 45  0  0  0  0  0  0  0  0999 V2000
   -2.3304   -2.9919    1.9684 N   0  0  0  0  0  0  0  0  0  0  0  0
   -2.4512   -1.6900    1.3043 C   0  0  1  0  0  0  0  0  0  0  0  0
   -1.1235   -0.8976    1.4050 C   0  0  0  0  0  0  0  0  0  0  0  0
    0.0275   -1.4044    0.5595 C   0  0  0  0  0  0  0  0  0  0  0  0
    0.0369   -2.6034    0.1704 O   0  0  0  0  0  0  0  0  0  0  0  0
    1.1270   -0.5383    0.1960 N   0  0  0  0  0  0  0  0  0  0  0  0
    1.3283    0.7560    0.8803 C   0  0  0  0  0  0  0  0  0  0  0  0
    2.8200    1.0787    1.0486 C   0  0  0  0  0  0  0  0  0  0  0  0
    3.5429    0.7680   -0.1783 N   0  0  0  0  0  0  0  0  0  0  0  0
    3.1372   -0.0797   -1.1304 C   0  0  0  0  0  0  0  0  0  0  0  0
    1.8392   -0.8175   -1.0665 C   0  0  0  0  0  0  0  0  0  0  0  0
    4.0543   -0.2058   -2.1081 N   0  0  0  0  0  0  0  0  0  0  0  0
    5.0775    0.5703   -1.7714 N   0  0  0  0  0  0  0  0  0  0  0  0
    4.7669    1.1478   -0.5918 C   0  0  0  0  0  0  0  0  0  0  0  0
    5.6602    2.1077    0.1330 C   0  0  0  0  0  0  0  0  0  0  0  0
    5.0968    3.3700    0.1095 F   0  0  0  0  0  0  0  0  0  0  0  0
    6.9018    2.1554   -0.4753 F   0  0  0  0  0  0  0  0  0  0  0  0
    5.8187    1.7005    1.4450 F   0  0  0  0  0  0  0  0  0  0  0  0
   -2.9908   -1.8416   -0.1406 C   0  0  0  0  0  0  0  0  0  0  0  0
   -3.1532   -0.5101   -0.8378 C   0  0  0  0  0  0  0  0  0  0  0  0
   -4.1245    0.4012   -0.3879 C   0  0  0  0  0  0  0  0  0  0  0  0
   -4.2742    1.6427   -1.0134 C   0  0  0  0  0  0  0  0  0  0  0  0
   -5.2120    2.5147   -0.5673 F   0  0  0  0  0  0  0  0  0  0  0  0
   -3.4589    1.9839   -2.0965 C   0  0  0  0  0  0  0  0  0  0  0  0
   -3.6013    3.1885   -2.7029 F   0  0  0  0  0  0  0  0  0  0  0  0
   -2.4973    1.0814   -2.5578 C   0  0  0  0  0  0  0  0  0  0  0  0
   -2.3442   -0.1630   -1.9380 C   0  0  0  0  0  0  0  0  0  0  0  0
   -1.4057   -1.0217   -2.4103 F   0  0  0  0  0  0  0  0  0  0  0  0
   -3.2926   -3.3681    2.1340 H   0  0  0  0  0  0  0  0  0  0  0  0
   -1.8494   -3.6750    1.3410 H   0  0  0  0  0  0  0  0  0  0  0  0
   -3.2017   -1.1008    1.8783 H   0  0  0  0  0  0  0  0  0  0  0  0
   -1.3373    0.1534    1.1141 H   0  0  0  0  0  0  0  0  0  0  0  0
   -0.7977   -0.8789    2.4673 H   0  0  0  0  0  0  0  0  0  0  0  0
    0.8413    1.5575    0.2835 H   0  0  0  0  0  0  0  0  0  0  0  0
    0.8744    0.7522    1.8931 H   0  0  0  0  0  0  0  0  0  0  0  0
    2.9314    2.1571    1.2927 H   0  0  0  0  0  0  0  0  0  0  0  0
    3.2447    0.4775    1.8814 H   0  0  0  0  0  0  0  0  0  0  0  0
    1.2042   -0.5128   -1.9243 H   0  0  0  0  0  0  0  0  0  0  0  0
    2.0620   -1.9026   -1.1499 H   0  0  0  0  0  0  0  0  0  0  0  0
   -2.3302   -2.5148   -0.7244 H   0  0  0  0  0  0  0  0  0  0  0  0
   -3.9831   -2.3418   -0.1057 H   0  0  0  0  0  0  0  0  0  0  0  0
   -4.7654    0.1491    0.4480 H   0  0  0  0  0  0  0  0  0  0  0  0
   -1.8688    1.3461   -3.3989 H   0  0  0  0  0  0  0  0  0  0  0  0
  2  1  1  0
  2  3  1  0
  3  4  1  0
  4  5  2  0
  4  6  1  0
  6  7  1  0
  7  8  1  0
  8  9  1  0
  9 10  1  0
 10 11  1  0
 11  6  1  0
 10 12  2  0
 12 13  1  0
 13 14  2  0
 14  9  1  0
 14 15  1  0
 15 16  1  0
 15 17  1  0
 15 18  1  0
  2 19  1  0
 19 20  1  0
 20 21  2  0
 21 22  1  0
 22 23  1  0
 22 24  2  0
 24 25  1  0
 24 26  1  0
 26 27  2  0
 27 20  1  0
 27 28  1  0
  1 29  1  0
  1 30  1  0
  2 31  1  1
  3 32  1  0
  3 33  1  0
  7 34  1  0
  7 35  1  0
  8 36  1  0
  8 37  1  0
 11 38  1  0
 11 39  1  0
 19 40  1  0
 19 41  1  0
 21 42  1  0
 26 43  1  0
M  END
> <ID>
HT1893

> <Class>
1.0

> <Clusters>
232

> <Fold>
4

$$$$