
     RDKit          3D

 38 38  0  0  0  0  0  0  0  0999 V2000
   -4.1799    2.5247   -0.6560 C   0  0  0  0  0  0  0  0  0  0  0  0
   -3.6519    1.0849   -0.6919 C   0  0  0  0  0  0  0  0  0  0  0  0
   -4.5438    0.1317    0.1223 C   0  0  0  0  0  0  0  0  0  0  0  0
   -2.2273    1.0264   -0.3025 N   0  0  0  0  0  0  0  0  0  0  0  0
   -1.9819    1.1637    1.1432 C   0  0  0  0  0  0  0  0  0  0  0  0
   -0.5035    1.5136    1.4038 C   0  0  0  0  0  0  0  0  0  0  0  0
   -0.2785    1.7730    2.7677 O   0  0  0  0  0  0  0  0  0  0  0  0
    0.4430    0.4365    0.9062 C   0  0  0  0  0  0  0  0  0  0  0  0
    1.3680    0.7270   -0.1095 C   0  0  0  0  0  0  0  0  0  0  0  0
    2.2395   -0.2574   -0.5819 C   0  0  0  0  0  0  0  0  0  0  0  0
    2.2054   -1.5575   -0.0462 C   0  0  0  0  0  0  0  0  0  0  0  0
    3.0839   -2.6000   -0.5092 N   0  0  0  0  0  0  0  0  0  0  0  0
    4.4168   -2.3535   -1.5938 S   0  0  0  0  0  0  0  0  0  0  0  0
    3.9268   -1.7622   -2.8856 O   0  0  0  0  0  0  0  0  0  0  0  0
    5.0598   -3.6813   -1.8850 O   0  0  0  0  0  0  0  0  0  0  0  0
    5.6338   -1.2925   -0.8431 C   0  0  0  0  0  0  0  0  0  0  0  0
    1.2764   -1.8478    0.9644 C   0  0  0  0  0  0  0  0  0  0  0  0
    0.4063   -0.8626    1.4393 C   0  0  0  0  0  0  0  0  0  0  0  0
   -3.4803    3.1984   -1.1966 H   0  0  0  0  0  0  0  0  0  0  0  0
   -4.3016    2.8883    0.3852 H   0  0  0  0  0  0  0  0  0  0  0  0
   -5.1708    2.5754   -1.1552 H   0  0  0  0  0  0  0  0  0  0  0  0
   -3.7181    0.7556   -1.7540 H   0  0  0  0  0  0  0  0  0  0  0  0
   -5.5570    0.0849   -0.3292 H   0  0  0  0  0  0  0  0  0  0  0  0
   -4.1133   -0.8917    0.1147 H   0  0  0  0  0  0  0  0  0  0  0  0
   -4.6478    0.4766    1.1723 H   0  0  0  0  0  0  0  0  0  0  0  0
   -1.8493    0.0993   -0.6094 H   0  0  0  0  0  0  0  0  0  0  0  0
   -2.2490    0.2218    1.6699 H   0  0  0  0  0  0  0  0  0  0  0  0
   -2.5995    1.9804    1.5718 H   0  0  0  0  0  0  0  0  0  0  0  0
   -0.2984    2.4624    0.8604 H   0  0  0  0  0  0  0  0  0  0  0  0
   -0.6166    1.0004    3.2881 H   0  0  0  0  0  0  0  0  0  0  0  0
    1.4147    1.7183   -0.5432 H   0  0  0  0  0  0  0  0  0  0  0  0
    2.9270    0.0092   -1.3692 H   0  0  0  0  0  0  0  0  0  0  0  0
    2.9580   -3.5671   -0.1352 H   0  0  0  0  0  0  0  0  0  0  0  0
    5.1737   -0.3294   -0.5471 H   0  0  0  0  0  0  0  0  0  0  0  0
    6.4561   -1.0978   -1.5635 H   0  0  0  0  0  0  0  0  0  0  0  0
    6.0497   -1.7898    0.0565 H   0  0  0  0  0  0  0  0  0  0  0  0
    1.2276   -2.8420    1.3895 H   0  0  0  0  0  0  0  0  0  0  0  0
   -0.2978   -1.1195    2.2199 H   0  0  0  0  0  0  0  0  0  0  0  0
  1  2  1  0
  2  3  1  0
  2  4  1  0
  4  5  1  0
  5  6  1  0
  6  7  1  0
  6  8  1  0
  8  9  2  0
  9 10  1  0
 10 11  2  0
 11 12  1  0
 12 13  1  0
 13 14  2  0
 13 15  2  0
 13 16  1  0
 11 17  1  0
 17 18  2  0
 18  8  1  0
  1 19  1  0
  1 20  1  0
  1 21  1  0
  2 22  1  0
  3 23  1  0
  3 24  1  0
  3 25  1  0
  4 26  1  0
  5 27  1  0
  5 28  1  0
  6 29  1  0
  7 30  1  0
  9 31  1  0
 10 32  1  0
 12 33  1  0
 16 34  1  0
 16 35  1  0
 16 36  1  0
 17 37  1  0
 18 38  1  0
M  END
> <ID>
HT1907

> <Class>
1.0

> <Clusters>
138

> <Fold>
4

$$$$