
     RDKit          3D

 31 33  0  0  0  0  0  0  0  0999 V2000
    1.6869    2.5244    1.3446 N   0  0  0  0  0  0  0  0  0  0  0  0
    0.4298    2.2698    0.7122 C   0  0  0  0  0  0  0  0  0  0  0  0
   -0.4419    3.1807    0.6996 O   0  0  0  0  0  0  0  0  0  0  0  0
    0.1376    0.9808    0.1315 N   0  0  0  0  0  0  0  0  0  0  0  0
   -1.2244    0.6147   -0.1302 C   0  0  0  0  0  0  0  0  0  0  0  0
   -1.9629    1.2734   -1.1244 C   0  0  0  0  0  0  0  0  0  0  0  0
   -3.2841    0.8963   -1.3808 C   0  0  0  0  0  0  0  0  0  0  0  0
   -3.8706   -0.1405   -0.6495 C   0  0  0  0  0  0  0  0  0  0  0  0
   -3.1381   -0.8009    0.3417 C   0  0  0  0  0  0  0  0  0  0  0  0
   -1.8133   -0.4196    0.6093 C   0  0  0  0  0  0  0  0  0  0  0  0
   -0.9976   -1.1154    1.6578 C   0  0  0  0  0  0  0  0  0  0  0  0
    0.0882   -1.9230    1.0089 C   0  0  0  0  0  0  0  0  0  0  0  0
    0.0776   -3.1707    1.1961 O   0  0  0  0  0  0  0  0  0  0  0  0
    1.1692   -1.3149    0.1692 C   0  0  0  0  0  0  0  0  0  0  0  0
    2.2282   -2.1477   -0.2523 C   0  0  0  0  0  0  0  0  0  0  0  0
    3.2716   -1.6498   -1.0326 C   0  0  0  0  0  0  0  0  0  0  0  0
    3.2812   -0.3127   -1.4152 C   0  0  0  0  0  0  0  0  0  0  0  0
    2.2486    0.5330   -1.0171 C   0  0  0  0  0  0  0  0  0  0  0  0
    1.1907    0.0593   -0.2194 C   0  0  0  0  0  0  0  0  0  0  0  0
    2.3881    1.7651    1.4878 H   0  0  0  0  0  0  0  0  0  0  0  0
    1.8947    3.4716    1.7316 H   0  0  0  0  0  0  0  0  0  0  0  0
   -1.5105    2.0691   -1.7026 H   0  0  0  0  0  0  0  0  0  0  0  0
   -3.8519    1.4043   -2.1495 H   0  0  0  0  0  0  0  0  0  0  0  0
   -4.8924   -0.4341   -0.8525 H   0  0  0  0  0  0  0  0  0  0  0  0
   -3.6027   -1.6056    0.8978 H   0  0  0  0  0  0  0  0  0  0  0  0
   -1.6441   -1.7739    2.2793 H   0  0  0  0  0  0  0  0  0  0  0  0
   -0.5429   -0.3694    2.3447 H   0  0  0  0  0  0  0  0  0  0  0  0
    2.2569   -3.1940    0.0251 H   0  0  0  0  0  0  0  0  0  0  0  0
    4.0745   -2.3057   -1.3439 H   0  0  0  0  0  0  0  0  0  0  0  0
    4.0884    0.0692   -2.0270 H   0  0  0  0  0  0  0  0  0  0  0  0
    2.2650    1.5664   -1.3403 H   0  0  0  0  0  0  0  0  0  0  0  0
  1  2  1  0
  2  3  2  0
  2  4  1  0
  4  5  1  0
  5  6  2  0
  6  7  1  0
  7  8  2  0
  8  9  1  0
  9 10  2  0
 10  5  1  0
 10 11  1  0
 11 12  1  0
 12 13  2  0
 12 14  1  0
 14 15  2  0
 15 16  1  0
 16 17  2  0
 17 18  1  0
 18 19  2  0
 19  4  1  0
 19 14  1  0
  1 20  1  0
  1 21  1  0
  6 22  1  0
  7 23  1  0
  8 24  1  0
  9 25  1  0
 11 26  1  0
 11 27  1  0
 15 28  1  0
 16 29  1  0
 17 30  1  0
 18 31  1  0
M  END
> <ID>
HT1557

> <Class>
1.0

> <Clusters>
186

> <Fold>
4

$$$$