
     RDKit          3D

 24 24  0  0  0  0  0  0  0  0999 V2000
    1.3536   -2.3812   -0.3128 C   0  0  0  0  0  0  0  0  0  0  0  0
    1.6549   -0.9150   -0.3504 C   0  0  0  0  0  0  0  0  0  0  0  0
    2.7632   -0.4207   -0.9447 N   0  0  0  0  0  0  0  0  0  0  0  0
    2.6752    0.9116   -0.7706 C   0  0  0  0  0  0  0  0  0  0  0  0
    1.5222    1.2019   -0.0759 C   0  0  0  0  0  0  0  0  0  0  0  0
    1.0955    2.5275    0.2806 N   0  0  0  0  0  0  0  0  0  0  0  0
    0.0920    2.7191    0.9954 O   0  0  0  0  0  0  0  0  0  0  0  0
    1.8299    3.6134   -0.1363 O   0  0  0  0  0  0  0  0  0  0  0  0
    0.8719    0.0471    0.1976 N   0  0  0  0  0  0  0  0  0  0  0  0
   -0.4297   -0.1439    0.8518 C   0  0  0  0  0  0  0  0  0  0  0  0
   -1.5799    0.1729   -0.1196 C   0  0  0  0  0  0  0  0  0  0  0  0
   -1.5563   -0.7339   -1.1914 O   0  0  0  0  0  0  0  0  0  0  0  0
   -2.9432    0.1229    0.5881 C   0  0  0  0  0  0  0  0  0  0  0  0
   -3.3618   -1.5294    1.1235 Cl  0  0  0  0  0  0  0  0  0  0  0  0
    2.1460   -2.9496   -0.8439 H   0  0  0  0  0  0  0  0  0  0  0  0
    1.3133   -2.7288    0.7403 H   0  0  0  0  0  0  0  0  0  0  0  0
    0.3811   -2.5811   -0.8074 H   0  0  0  0  0  0  0  0  0  0  0  0
    3.4074    1.6216   -1.1315 H   0  0  0  0  0  0  0  0  0  0  0  0
   -0.5237   -1.1896    1.2130 H   0  0  0  0  0  0  0  0  0  0  0  0
   -0.4926    0.4934    1.7578 H   0  0  0  0  0  0  0  0  0  0  0  0
   -1.4339    1.2073   -0.5069 H   0  0  0  0  0  0  0  0  0  0  0  0
   -2.1092   -0.3384   -1.9151 H   0  0  0  0  0  0  0  0  0  0  0  0
   -2.9426    0.8004    1.4684 H   0  0  0  0  0  0  0  0  0  0  0  0
   -3.7332    0.4724   -0.1099 H   0  0  0  0  0  0  0  0  0  0  0  0
  1  2  1  0
  2  3  2  0
  3  4  1  0
  4  5  2  0
  5  6  1  0
  6  7  2  0
  6  8  1  0
  5  9  1  0
  9  2  1  0
  9 10  1  0
 10 11  1  0
 11 12  1  0
 11 13  1  0
 13 14  1  0
  1 15  1  0
  1 16  1  0
  1 17  1  0
  4 18  1  0
 10 19  1  0
 10 20  1  0
 11 21  1  0
 12 22  1  0
 13 23  1  0
 13 24  1  0
M  CHG  2   6   1   8  -1
M  END
> <ID>
HT1544

> <Class>
1.0

> <Clusters>
170

> <Fold>
4

$$$$