
     RDKit          3D

 30 32  0  0  0  0  0  0  0  0999 V2000
    1.2551    2.8785    1.0410 N   0  0  0  0  0  0  0  0  0  0  0  0
    0.0027    2.2990    0.6644 C   0  0  0  0  0  0  0  0  0  0  0  0
   -1.0501    2.9759    0.8165 O   0  0  0  0  0  0  0  0  0  0  0  0
   -0.0719    0.9489    0.1569 N   0  0  0  0  0  0  0  0  0  0  0  0
   -1.3367    0.3023   -0.0317 C   0  0  0  0  0  0  0  0  0  0  0  0
   -2.2856    0.8685   -0.8995 C   0  0  0  0  0  0  0  0  0  0  0  0
   -3.5289    0.2611   -1.0809 C   0  0  0  0  0  0  0  0  0  0  0  0
   -3.8369   -0.9143   -0.3964 C   0  0  0  0  0  0  0  0  0  0  0  0
   -2.8982   -1.4898    0.4632 C   0  0  0  0  0  0  0  0  0  0  0  0
   -1.6332   -0.9030    0.6386 C   0  0  0  0  0  0  0  0  0  0  0  0
   -0.6948   -1.5357    1.5944 C   0  0  0  0  0  0  0  0  0  0  0  0
    0.6412   -1.5753    1.4802 C   0  0  0  0  0  0  0  0  0  0  0  0
    1.4394   -0.9919    0.3773 C   0  0  0  0  0  0  0  0  0  0  0  0
    2.6221   -1.6471   -0.0064 C   0  0  0  0  0  0  0  0  0  0  0  0
    3.4347   -1.1181   -1.0121 C   0  0  0  0  0  0  0  0  0  0  0  0
    3.0839    0.0786   -1.6369 C   0  0  0  0  0  0  0  0  0  0  0  0
    1.9244    0.7526   -1.2511 C   0  0  0  0  0  0  0  0  0  0  0  0
    1.1037    0.2324   -0.2368 C   0  0  0  0  0  0  0  0  0  0  0  0
    2.1384    2.3234    1.0417 H   0  0  0  0  0  0  0  0  0  0  0  0
    1.2919    3.8656    1.3793 H   0  0  0  0  0  0  0  0  0  0  0  0
   -2.0568    1.7798   -1.4376 H   0  0  0  0  0  0  0  0  0  0  0  0
   -4.2554    0.7040   -1.7499 H   0  0  0  0  0  0  0  0  0  0  0  0
   -4.8042   -1.3808   -0.5314 H   0  0  0  0  0  0  0  0  0  0  0  0
   -3.1569   -2.4021    0.9874 H   0  0  0  0  0  0  0  0  0  0  0  0
   -1.1320   -2.1011    2.4096 H   0  0  0  0  0  0  0  0  0  0  0  0
    1.1765   -2.1693    2.2122 H   0  0  0  0  0  0  0  0  0  0  0  0
    2.9133   -2.5760    0.4692 H   0  0  0  0  0  0  0  0  0  0  0  0
    4.3383   -1.6365   -1.3060 H   0  0  0  0  0  0  0  0  0  0  0  0
    3.7133    0.4869   -2.4170 H   0  0  0  0  0  0  0  0  0  0  0  0
    1.6627    1.6836   -1.7383 H   0  0  0  0  0  0  0  0  0  0  0  0
  1  2  1  0
  2  3  2  0
  2  4  1  0
  4  5  1  0
  5  6  2  0
  6  7  1  0
  7  8  2  0
  8  9  1  0
  9 10  2  0
 10  5  1  0
 10 11  1  0
 11 12  2  0
 12 13  1  0
 13 14  2  0
 14 15  1  0
 15 16  2  0
 16 17  1  0
 17 18  2  0
 18  4  1  0
 18 13  1  0
  1 19  1  0
  1 20  1  0
  6 21  1  0
  7 22  1  0
  8 23  1  0
  9 24  1  0
 11 25  1  0
 12 26  1  0
 14 27  1  0
 15 28  1  0
 16 29  1  0
 17 30  1  0
M  END
> <ID>
HT0371

> <Class>
1.0

> <Clusters>
186

> <Fold>
4

$$$$