
     RDKit          3D

 50 50  0  0  0  0  0  0  0  0999 V2000
   -7.3425    1.1695   -1.5971 C   0  0  0  0  0  0  0  0  0  0  0  0
   -6.3851    0.1476   -1.3375 O   0  0  0  0  0  0  0  0  0  0  0  0
   -5.0965    0.3648   -0.8174 C   0  0  0  0  0  0  0  0  0  0  0  0
   -4.6462    1.6552   -0.5009 C   0  0  0  0  0  0  0  0  0  0  0  0
   -3.3592    1.8691    0.0037 C   0  0  0  0  0  0  0  0  0  0  0  0
   -2.9117    3.2812    0.2926 C   0  0  0  0  0  0  0  0  0  0  0  0
   -2.5044    0.7689    0.2343 C   0  0  0  0  0  0  0  0  0  0  0  0
   -1.1352    1.0226    0.7450 C   0  0  0  0  0  0  0  0  0  0  0  0
   -0.0505    0.6268    0.0670 C   0  0  0  0  0  0  0  0  0  0  0  0
    1.3347    0.8814    0.5336 C   0  0  0  0  0  0  0  0  0  0  0  0
    2.2927    0.0062    0.1715 C   0  0  0  0  0  0  0  0  0  0  0  0
    3.7003    0.0836    0.6196 C   0  0  0  0  0  0  0  0  0  0  0  0
    4.6125   -0.7788    0.1571 C   0  0  0  0  0  0  0  0  0  0  0  0
    6.0295   -0.7538    0.6015 C   0  0  0  0  0  0  0  0  0  0  0  0
    7.0460   -1.1144   -0.2097 C   0  0  0  0  0  0  0  0  0  0  0  0
    6.9339   -1.4538   -1.6468 C   0  0  0  0  0  0  0  0  0  0  0  0
    5.9386   -1.0967   -2.3304 O   0  0  0  0  0  0  0  0  0  0  0  0
    7.9738   -2.1296   -2.2785 O   0  0  0  0  0  0  0  0  0  0  0  0
    6.3520   -0.3248    2.0111 C   0  0  0  0  0  0  0  0  0  0  0  0
    1.6433    2.0828    1.3973 C   0  0  0  0  0  0  0  0  0  0  0  0
   -2.9719   -0.5510   -0.0119 C   0  0  0  0  0  0  0  0  0  0  0  0
   -2.1178   -1.7511    0.3490 C   0  0  0  0  0  0  0  0  0  0  0  0
   -4.2476   -0.7410   -0.6074 C   0  0  0  0  0  0  0  0  0  0  0  0
   -4.7389   -2.1265   -0.9648 C   0  0  0  0  0  0  0  0  0  0  0  0
   -7.5974    1.7022   -0.6566 H   0  0  0  0  0  0  0  0  0  0  0  0
   -6.9443    1.8845   -2.3477 H   0  0  0  0  0  0  0  0  0  0  0  0
   -8.2649    0.7065   -2.0032 H   0  0  0  0  0  0  0  0  0  0  0  0
   -5.2936    2.5069   -0.6599 H   0  0  0  0  0  0  0  0  0  0  0  0
   -3.6564    4.0304   -0.0511 H   0  0  0  0  0  0  0  0  0  0  0  0
   -1.9549    3.4910   -0.2307 H   0  0  0  0  0  0  0  0  0  0  0  0
   -2.7684    3.4111    1.3858 H   0  0  0  0  0  0  0  0  0  0  0  0
   -1.0354    1.5884    1.6618 H   0  0  0  0  0  0  0  0  0  0  0  0
   -0.1862    0.0565   -0.8455 H   0  0  0  0  0  0  0  0  0  0  0  0
    2.0191   -0.8288   -0.4659 H   0  0  0  0  0  0  0  0  0  0  0  0
    4.0010    0.8420    1.3298 H   0  0  0  0  0  0  0  0  0  0  0  0
    4.3057   -1.5308   -0.5597 H   0  0  0  0  0  0  0  0  0  0  0  0
    8.0486   -1.1429    0.2012 H   0  0  0  0  0  0  0  0  0  0  0  0
    8.7991   -2.4216   -1.7687 H   0  0  0  0  0  0  0  0  0  0  0  0
    5.5186   -0.5844    2.6979 H   0  0  0  0  0  0  0  0  0  0  0  0
    6.5154    0.7730    2.0360 H   0  0  0  0  0  0  0  0  0  0  0  0
    7.2637   -0.8338    2.3920 H   0  0  0  0  0  0  0  0  0  0  0  0
    2.5621    2.5946    1.0421 H   0  0  0  0  0  0  0  0  0  0  0  0
    1.7749    1.7640    2.4524 H   0  0  0  0  0  0  0  0  0  0  0  0
    0.8347    2.8404    1.3432 H   0  0  0  0  0  0  0  0  0  0  0  0
   -1.4143   -1.5254    1.1763 H   0  0  0  0  0  0  0  0  0  0  0  0
   -2.7427   -2.5916    0.7150 H   0  0  0  0  0  0  0  0  0  0  0  0
   -1.5431   -2.0829   -0.5406 H   0  0  0  0  0  0  0  0  0  0  0  0
   -3.9185   -2.7342   -1.4005 H   0  0  0  0  0  0  0  0  0  0  0  0
   -5.1296   -2.6288   -0.0553 H   0  0  0  0  0  0  0  0  0  0  0  0
   -5.5427   -2.0995   -1.7293 H   0  0  0  0  0  0  0  0  0  0  0  0
  1  2  1  0
  2  3  1  0
  3  4  2  0
  4  5  1  0
  5  6  1  0
  5  7  2  0
  7  8  1  0
  8  9  2  3
  9 10  1  0
 10 11  2  3
 11 12  1  0
 12 13  2  3
 13 14  1  0
 14 15  2  3
 15 16  1  0
 16 17  2  0
 16 18  1  0
 14 19  1  0
 10 20  1  0
  7 21  1  0
 21 22  1  0
 21 23  2  0
 23  3  1  0
 23 24  1  0
  1 25  1  0
  1 26  1  0
  1 27  1  0
  4 28  1  0
  6 29  1  0
  6 30  1  0
  6 31  1  0
  8 32  1  0
  9 33  1  0
 11 34  1  0
 12 35  1  0
 13 36  1  0
 15 37  1  0
 18 38  1  0
 19 39  1  0
 19 40  1  0
 19 41  1  0
 20 42  1  0
 20 43  1  0
 20 44  1  0
 22 45  1  0
 22 46  1  0
 22 47  1  0
 24 48  1  0
 24 49  1  0
 24 50  1  0
M  END
> <ID>
HT0065

> <Class>
1.0

> <Clusters>
100

> <Fold>
4

$$$$