
     RDKit          3D

 30 30  0  0  0  0  0  0  0  0999 V2000
   -1.5573   -1.4992    0.7638 C   0  0  0  0  0  0  0  0  0  0  0  0
   -1.7955   -0.1749    0.0008 C   0  0  1  0  0  0  0  0  0  0  0  0
   -0.7479    0.0218   -1.1433 C   0  0  0  0  0  0  0  0  0  0  0  0
    0.6929    0.0900   -0.6860 C   0  0  0  0  0  0  0  0  0  0  0  0
    1.4373   -1.0862   -0.4991 C   0  0  0  0  0  0  0  0  0  0  0  0
    2.7746   -1.0202   -0.0999 C   0  0  0  0  0  0  0  0  0  0  0  0
    3.3901    0.2221    0.1026 C   0  0  0  0  0  0  0  0  0  0  0  0
    4.7230    0.2925    0.5033 O   0  0  0  0  0  0  0  0  0  0  0  0
    2.6627    1.4014   -0.1022 C   0  0  0  0  0  0  0  0  0  0  0  0
    3.2790    2.6359    0.0944 O   0  0  0  0  0  0  0  0  0  0  0  0
    1.3210    1.3340   -0.5039 C   0  0  0  0  0  0  0  0  0  0  0  0
   -3.1651   -0.1779   -0.5695 N   0  0  0  0  0  0  0  0  0  0  0  0
   -3.3254   -1.2571   -1.4635 N   0  0  0  0  0  0  0  0  0  0  0  0
   -1.6933    0.9664    1.0026 C   0  0  0  0  0  0  0  0  0  0  0  0
   -2.6222    1.8131    1.1111 O   0  0  0  0  0  0  0  0  0  0  0  0
   -0.5773    1.0782    1.8290 O   0  0  0  0  0  0  0  0  0  0  0  0
   -0.6144   -1.4696    1.3495 H   0  0  0  0  0  0  0  0  0  0  0  0
   -1.4913   -2.3576    0.0623 H   0  0  0  0  0  0  0  0  0  0  0  0
   -2.3926   -1.6877    1.4723 H   0  0  0  0  0  0  0  0  0  0  0  0
   -0.8374   -0.7999   -1.8868 H   0  0  0  0  0  0  0  0  0  0  0  0
   -0.9952    0.9535   -1.6991 H   0  0  0  0  0  0  0  0  0  0  0  0
    0.9826   -2.0550   -0.6638 H   0  0  0  0  0  0  0  0  0  0  0  0
    3.3332   -1.9356    0.0481 H   0  0  0  0  0  0  0  0  0  0  0  0
    5.2746   -0.5433    0.6584 H   0  0  0  0  0  0  0  0  0  0  0  0
    2.7790    3.5062   -0.0451 H   0  0  0  0  0  0  0  0  0  0  0  0
    0.7648    2.2501   -0.6616 H   0  0  0  0  0  0  0  0  0  0  0  0
   -3.3063    0.7113   -1.1088 H   0  0  0  0  0  0  0  0  0  0  0  0
   -3.7349   -2.0479   -0.9163 H   0  0  0  0  0  0  0  0  0  0  0  0
   -4.0592   -0.9975   -2.1635 H   0  0  0  0  0  0  0  0  0  0  0  0
   -0.4995    1.8331    2.4999 H   0  0  0  0  0  0  0  0  0  0  0  0
  2  1  1  0
  2  3  1  0
  3  4  1  0
  4  5  2  0
  5  6  1  0
  6  7  2  0
  7  8  1  0
  7  9  1  0
  9 10  1  0
  9 11  2  0
 11  4  1  0
  2 12  1  0
 12 13  1  0
  2 14  1  1
 14 15  2  0
 14 16  1  0
  1 17  1  0
  1 18  1  0
  1 19  1  0
  3 20  1  0
  3 21  1  0
  5 22  1  0
  6 23  1  0
  8 24  1  0
 10 25  1  0
 11 26  1  0
 12 27  1  0
 13 28  1  0
 13 29  1  0
 16 30  1  0
M  END
> <ID>
HT0377

> <Class>
1.0

> <Clusters>
146

> <Fold>
4

$$$$