
     RDKit          3D

 38 38  0  0  0  0  0  0  0  0999 V2000
    6.3423    1.6731    0.4675 O   0  0  0  0  0  0  0  0  0  0  0  0
    6.0522    0.3133    0.5290 C   0  0  0  0  0  0  0  0  0  0  0  0
    6.5667   -0.3894    1.4384 O   0  0  0  0  0  0  0  0  0  0  0  0
    5.0997   -0.3074   -0.4474 C   0  0  0  0  0  0  0  0  0  0  0  0
    3.6532   -0.1012    0.0106 C   0  0  0  0  0  0  0  0  0  0  0  0
    2.6668   -0.7308   -0.9807 C   0  0  0  0  0  0  0  0  0  0  0  0
    1.2425   -0.5049   -0.5428 C   0  0  0  0  0  0  0  0  0  0  0  0
    0.7307   -1.1821    0.5754 C   0  0  0  0  0  0  0  0  0  0  0  0
   -0.5908   -0.9783    0.9816 C   0  0  0  0  0  0  0  0  0  0  0  0
   -1.4253   -0.1006    0.2702 C   0  0  0  0  0  0  0  0  0  0  0  0
   -0.9107    0.5816   -0.8422 C   0  0  0  0  0  0  0  0  0  0  0  0
    0.4105    0.3774   -1.2498 C   0  0  0  0  0  0  0  0  0  0  0  0
   -2.7889    0.1134    0.6834 N   0  0  0  0  0  0  0  0  0  0  0  0
   -3.6941   -1.0364    0.8546 C   0  0  0  0  0  0  0  0  0  0  0  0
   -4.2487   -1.5093   -0.4908 C   0  0  0  0  0  0  0  0  0  0  0  0
   -3.0116   -2.3704   -1.4445 Cl  0  0  0  0  0  0  0  0  0  0  0  0
   -3.1702    1.4351    1.2068 C   0  0  0  0  0  0  0  0  0  0  0  0
   -4.4283    1.9885    0.5287 C   0  0  0  0  0  0  0  0  0  0  0  0
   -4.1493    2.3189   -1.2000 Cl  0  0  0  0  0  0  0  0  0  0  0  0
    5.9264    2.2656   -0.2412 H   0  0  0  0  0  0  0  0  0  0  0  0
    5.3158   -1.3948   -0.5357 H   0  0  0  0  0  0  0  0  0  0  0  0
    5.2503    0.1563   -1.4463 H   0  0  0  0  0  0  0  0  0  0  0  0
    3.5195   -0.5619    1.0143 H   0  0  0  0  0  0  0  0  0  0  0  0
    3.4437    0.9887    0.0921 H   0  0  0  0  0  0  0  0  0  0  0  0
    2.8537   -1.8240   -1.0614 H   0  0  0  0  0  0  0  0  0  0  0  0
    2.8343   -0.2894   -1.9881 H   0  0  0  0  0  0  0  0  0  0  0  0
    1.3565   -1.8674    1.1336 H   0  0  0  0  0  0  0  0  0  0  0  0
   -0.9554   -1.4938    1.8600 H   0  0  0  0  0  0  0  0  0  0  0  0
   -1.5349    1.2626   -1.4024 H   0  0  0  0  0  0  0  0  0  0  0  0
    0.7840    0.9117   -2.1145 H   0  0  0  0  0  0  0  0  0  0  0  0
   -3.1788   -1.8762    1.3653 H   0  0  0  0  0  0  0  0  0  0  0  0
   -4.5489   -0.7578    1.5079 H   0  0  0  0  0  0  0  0  0  0  0  0
   -4.6314   -0.6482   -1.0766 H   0  0  0  0  0  0  0  0  0  0  0  0
   -5.0915   -2.2097   -0.3116 H   0  0  0  0  0  0  0  0  0  0  0  0
   -3.3541    1.3511    2.2996 H   0  0  0  0  0  0  0  0  0  0  0  0
   -2.3428    2.1664    1.0709 H   0  0  0  0  0  0  0  0  0  0  0  0
   -4.7117    2.9432    1.0196 H   0  0  0  0  0  0  0  0  0  0  0  0
   -5.2812    1.2874    0.6340 H   0  0  0  0  0  0  0  0  0  0  0  0
  1  2  1  0
  2  3  2  0
  2  4  1  0
  4  5  1  0
  5  6  1  0
  6  7  1  0
  7  8  2  0
  8  9  1  0
  9 10  2  0
 10 11  1  0
 11 12  2  0
 12  7  1  0
 10 13  1  0
 13 14  1  0
 14 15  1  0
 15 16  1  0
 13 17  1  0
 17 18  1  0
 18 19  1  0
  1 20  1  0
  4 21  1  0
  4 22  1  0
  5 23  1  0
  5 24  1  0
  6 25  1  0
  6 26  1  0
  8 27  1  0
  9 28  1  0
 11 29  1  0
 12 30  1  0
 14 31  1  0
 14 32  1  0
 15 33  1  0
 15 34  1  0
 17 35  1  0
 17 36  1  0
 18 37  1  0
 18 38  1  0
M  END
> <ID>
HT0443

> <Class>
1.0

> <Clusters>
48

> <Fold>
4

$$$$