
     RDKit          3D

 29 29  0  0  0  0  0  0  0  0999 V2000
    2.3597   -1.8933    0.1982 C   0  0  0  0  0  0  0  0  0  0  0  0
    1.9332   -0.4485   -0.0822 C   0  0  2  0  0  0  0  0  0  0  0  0
    3.0388    0.5327    0.3401 C   0  0  0  0  0  0  0  0  0  0  0  0
    2.6302    2.2349   -0.1671 S   0  0  0  0  0  0  0  0  0  0  0  0
    0.6360   -0.1471    0.6404 C   0  0  0  0  0  0  0  0  0  0  0  0
    0.6156   -0.2079    1.9010 O   0  0  0  0  0  0  0  0  0  0  0  0
   -0.5706    0.2043   -0.0680 N   0  0  0  0  0  0  0  0  0  0  0  0
   -0.6633    0.3650   -1.5113 C   0  0  0  0  0  0  0  0  0  0  0  0
   -2.1139    0.7312   -1.7961 C   0  0  0  0  0  0  0  0  0  0  0  0
   -2.6935    1.1916   -0.4627 C   0  0  0  0  0  0  0  0  0  0  0  0
   -1.8134    0.5504    0.6112 C   0  0  1  0  0  0  0  0  0  0  0  0
   -2.4662   -0.6753    1.1934 C   0  0  0  0  0  0  0  0  0  0  0  0
   -3.4520   -0.5485    1.9680 O   0  0  0  0  0  0  0  0  0  0  0  0
   -1.9965   -1.9476    0.8766 O   0  0  0  0  0  0  0  0  0  0  0  0
    3.2780   -2.1401   -0.3765 H   0  0  0  0  0  0  0  0  0  0  0  0
    2.5654   -2.0428    1.2802 H   0  0  0  0  0  0  0  0  0  0  0  0
    1.5568   -2.5948   -0.1154 H   0  0  0  0  0  0  0  0  0  0  0  0
    1.8059   -0.3569   -1.1801 H   0  0  0  0  0  0  0  0  0  0  0  0
    3.9969    0.2509   -0.1475 H   0  0  0  0  0  0  0  0  0  0  0  0
    3.1879    0.5053    1.4413 H   0  0  0  0  0  0  0  0  0  0  0  0
    3.8222    2.7516    0.3751 H   0  0  0  0  0  0  0  0  0  0  0  0
    0.0112    1.1846   -1.8413 H   0  0  0  0  0  0  0  0  0  0  0  0
   -0.3979   -0.5839   -2.0258 H   0  0  0  0  0  0  0  0  0  0  0  0
   -2.6646   -0.1698   -2.1459 H   0  0  0  0  0  0  0  0  0  0  0  0
   -2.1886    1.5281   -2.5675 H   0  0  0  0  0  0  0  0  0  0  0  0
   -3.7680    0.9175   -0.3726 H   0  0  0  0  0  0  0  0  0  0  0  0
   -2.6062    2.2985   -0.3933 H   0  0  0  0  0  0  0  0  0  0  0  0
   -1.6091    1.2844    1.4222 H   0  0  0  0  0  0  0  0  0  0  0  0
   -2.4343   -2.7747    1.2641 H   0  0  0  0  0  0  0  0  0  0  0  0
  2  1  1  0
  2  3  1  0
  3  4  1  0
  2  5  1  0
  5  6  2  0
  5  7  1  0
  7  8  1  0
  8  9  1  0
  9 10  1  0
 10 11  1  0
 11  7  1  0
 11 12  1  0
 12 13  2  0
 12 14  1  0
  1 15  1  0
  1 16  1  0
  1 17  1  0
  2 18  1  6
  3 19  1  0
  3 20  1  0
  4 21  1  0
  8 22  1  0
  8 23  1  0
  9 24  1  0
  9 25  1  0
 10 26  1  0
 10 27  1  0
 11 28  1  1
 14 29  1  0
M  END
> <ID>
HT0369

> <Class>
1.0

> <Clusters>
94

> <Fold>
4

$$$$