
     RDKit          3D

 83 88  0  0  0  0  0  0  0  0999 V2000
   -5.6777   -5.0307    2.2336 C   0  0  0  0  0  0  0  0  0  0  0  0
   -4.7933   -5.4472    1.0550 C   0  0  0  0  0  0  0  0  0  0  0  0
   -3.6510   -6.3532    1.5231 C   0  0  0  0  0  0  0  0  0  0  0  0
   -4.2426   -4.2331    0.3628 C   0  0  0  0  0  0  0  0  0  0  0  0
   -4.5219   -4.0227   -0.8496 O   0  0  0  0  0  0  0  0  0  0  0  0
   -3.4227   -3.3458    1.0672 O   0  0  0  0  0  0  0  0  0  0  0  0
   -2.8451   -2.1905    0.4662 C   0  0  0  0  0  0  0  0  0  0  0  0
   -2.0130   -1.4339    1.4679 C   0  0  0  0  0  0  0  0  0  0  0  0
   -2.0455   -1.7637    2.6452 O   0  0  0  0  0  0  0  0  0  0  0  0
   -1.1242   -0.2719    1.0172 C   0  0  1  0  0  0  0  0  0  0  0  0
   -1.6910    0.3179   -0.1207 O   0  0  0  0  0  0  0  0  0  0  0  0
   -2.4553    1.3906    0.3766 C   0  0  1  0  0  0  0  0  0  0  0  0
   -1.8711    1.9017    1.5512 O   0  0  0  0  0  0  0  0  0  0  0  0
   -1.0467    0.8787    2.0329 C   0  0  2  0  0  0  0  0  0  0  0  0
    0.4212    1.3571    2.0632 C   0  0  0  0  0  0  0  0  0  0  0  0
    1.0474    0.6967    0.8419 C   0  0  1  0  0  0  0  0  0  0  0  0
    2.5851    0.6327    0.7148 C   0  0  2  0  0  0  0  0  0  0  0  0
    3.1863    2.0498    0.8458 C   0  0  0  0  0  0  0  0  0  0  0  0
    4.6972    2.0406    0.6264 C   0  0  0  0  0  0  0  0  0  0  0  0
    5.0073    1.4200   -0.7115 C   0  0  0  0  0  0  0  0  0  0  0  0
    5.6921    2.1270   -1.6248 C   0  0  0  0  0  0  0  0  0  0  0  0
    5.9421    1.5867   -2.9599 C   0  0  0  0  0  0  0  0  0  0  0  0
    6.6025    2.2524   -3.8001 O   0  0  0  0  0  0  0  0  0  0  0  0
    5.4099    0.2750   -3.3172 C   0  0  0  0  0  0  0  0  0  0  0  0
    4.7275   -0.4455   -2.4269 C   0  0  0  0  0  0  0  0  0  0  0  0
    4.4850   -0.0006   -0.9834 C   0  0  1  0  0  0  0  0  0  0  0  0
    5.2795   -0.9740   -0.0791 C   0  0  0  0  0  0  0  0  0  0  0  0
    2.9336    0.0093   -0.6863 C   0  0  1  0  0  0  0  0  0  0  0  0
    2.1787   -1.3424   -0.9595 C   0  0  1  0  0  0  0  0  0  0  0  0
    2.7634   -2.4033   -0.2528 O   0  0  0  0  0  0  0  0  0  0  0  0
    0.6566   -1.2623   -0.6457 C   0  0  0  0  0  0  0  0  0  0  0  0
    0.3651   -0.6722    0.7585 C   0  0  2  0  0  0  0  0  0  0  0  0
    0.8473   -1.6618    1.8725 C   0  0  0  0  0  0  0  0  0  0  0  0
   -2.5992    2.4884   -0.6974 C   0  0  0  0  0  0  0  0  0  0  0  0
   -1.2351    3.1006   -1.1076 C   0  0  0  0  0  0  0  0  0  0  0  0
   -1.3591    4.4801   -1.7900 C   0  0  0  0  0  0  0  0  0  0  0  0
   -2.7368    4.6934   -2.4246 C   0  0  0  0  0  0  0  0  0  0  0  0
   -3.8633    4.6006   -1.3767 C   0  0  0  0  0  0  0  0  0  0  0  0
   -3.5711    3.5941   -0.2429 C   0  0  0  0  0  0  0  0  0  0  0  0
   -5.0886   -4.4715    2.9926 H   0  0  0  0  0  0  0  0  0  0  0  0
   -6.5086   -4.3847    1.8773 H   0  0  0  0  0  0  0  0  0  0  0  0
   -6.1192   -5.9291    2.7153 H   0  0  0  0  0  0  0  0  0  0  0  0
   -5.4203   -6.0235    0.3383 H   0  0  0  0  0  0  0  0  0  0  0  0
   -3.0080   -5.8291    2.2631 H   0  0  0  0  0  0  0  0  0  0  0  0
   -4.0612   -7.2720    1.9937 H   0  0  0  0  0  0  0  0  0  0  0  0
   -3.0256   -6.6569    0.6561 H   0  0  0  0  0  0  0  0  0  0  0  0
   -2.1999   -2.5054   -0.3808 H   0  0  0  0  0  0  0  0  0  0  0  0
   -3.6499   -1.5279    0.0824 H   0  0  0  0  0  0  0  0  0  0  0  0
   -3.4740    1.0115    0.6230 H   0  0  0  0  0  0  0  0  0  0  0  0
   -1.3716    0.5925    3.0566 H   0  0  0  0  0  0  0  0  0  0  0  0
    0.4938    2.4653    2.0066 H   0  0  0  0  0  0  0  0  0  0  0  0
    0.9253    1.0139    2.9925 H   0  0  0  0  0  0  0  0  0  0  0  0
    0.7067    1.3033   -0.0286 H   0  0  0  0  0  0  0  0  0  0  0  0
    3.0085    0.0231    1.5349 H   0  0  0  0  0  0  0  0  0  0  0  0
    2.9861    2.4504    1.8629 H   0  0  0  0  0  0  0  0  0  0  0  0
    2.7148    2.7375    0.1084 H   0  0  0  0  0  0  0  0  0  0  0  0
    5.0747    3.0845    0.6968 H   0  0  0  0  0  0  0  0  0  0  0  0
    5.1911    1.4586    1.4329 H   0  0  0  0  0  0  0  0  0  0  0  0
    6.0508    3.1236   -1.3958 H   0  0  0  0  0  0  0  0  0  0  0  0
    5.5780   -0.1188   -4.3120 H   0  0  0  0  0  0  0  0  0  0  0  0
    4.3981   -1.4302   -2.7332 H   0  0  0  0  0  0  0  0  0  0  0  0
    5.1415   -2.0317   -0.3849 H   0  0  0  0  0  0  0  0  0  0  0  0
    6.3688   -0.7652   -0.1605 H   0  0  0  0  0  0  0  0  0  0  0  0
    4.9980   -0.8810    0.9880 H   0  0  0  0  0  0  0  0  0  0  0  0
    2.5076    0.7147   -1.4393 H   0  0  0  0  0  0  0  0  0  0  0  0
    2.2527   -1.5578   -2.0497 H   0  0  0  0  0  0  0  0  0  0  0  0
    2.4638   -3.2439   -0.6879 H   0  0  0  0  0  0  0  0  0  0  0  0
    0.2023   -2.2726   -0.7352 H   0  0  0  0  0  0  0  0  0  0  0  0
    0.1839   -0.6308   -1.4296 H   0  0  0  0  0  0  0  0  0  0  0  0
    0.3991   -2.6655    1.7126 H   0  0  0  0  0  0  0  0  0  0  0  0
    1.9400   -1.8066    1.9032 H   0  0  0  0  0  0  0  0  0  0  0  0
    0.5506   -1.3155    2.8841 H   0  0  0  0  0  0  0  0  0  0  0  0
   -3.0440    2.0027   -1.5957 H   0  0  0  0  0  0  0  0  0  0  0  0
   -0.5861    3.2303   -0.2162 H   0  0  0  0  0  0  0  0  0  0  0  0
   -0.7216    2.3950   -1.7969 H   0  0  0  0  0  0  0  0  0  0  0  0
   -1.1877    5.2815   -1.0376 H   0  0  0  0  0  0  0  0  0  0  0  0
   -0.5726    4.5812   -2.5690 H   0  0  0  0  0  0  0  0  0  0  0  0
   -2.7702    5.6892   -2.9172 H   0  0  0  0  0  0  0  0  0  0  0  0
   -2.8953    3.9246   -3.2127 H   0  0  0  0  0  0  0  0  0  0  0  0
   -4.0316    5.6041   -0.9282 H   0  0  0  0  0  0  0  0  0  0  0  0
   -4.8031    4.3103   -1.8949 H   0  0  0  0  0  0  0  0  0  0  0  0
   -3.1286    4.1365    0.6221 H   0  0  0  0  0  0  0  0  0  0  0  0
   -4.5306    3.1469    0.0976 H   0  0  0  0  0  0  0  0  0  0  0  0
  1  2  1  0
  2  3  1  0
  2  4  1  0
  4  5  2  0
  4  6  1  0
  6  7  1  0
  7  8  1  0
  8  9  2  0
 10  8  1  1
 10 11  1  0
 11 12  1  0
 12 13  1  0
 13 14  1  0
 14 10  1  0
 14 15  1  0
 16 15  1  0
 16 17  1  0
 17 18  1  0
 18 19  1  0
 19 20  1  0
 20 21  2  0
 21 22  1  0
 22 23  2  0
 22 24  1  0
 24 25  2  0
 25 26  1  0
 26 20  1  0
 26 27  1  1
 26 28  1  0
 28 17  1  0
 28 29  1  0
 29 30  1  0
 29 31  1  0
 31 32  1  0
 32 10  1  0
 32 16  1  0
 32 33  1  1
 12 34  1  0
 34 35  1  0
 35 36  1  0
 36 37  1  0
 37 38  1  0
 38 39  1  0
 39 34  1  0
  1 40  1  0
  1 41  1  0
  1 42  1  0
  2 43  1  0
  3 44  1  0
  3 45  1  0
  3 46  1  0
  7 47  1  0
  7 48  1  0
 12 49  1  1
 14 50  1  1
 15 51  1  0
 15 52  1  0
 16 53  1  6
 17 54  1  1
 18 55  1  0
 18 56  1  0
 19 57  1  0
 19 58  1  0
 21 59  1  0
 24 60  1  0
 25 61  1  0
 27 62  1  0
 27 63  1  0
 27 64  1  0
 28 65  1  6
 29 66  1  6
 30 67  1  0
 31 68  1  0
 31 69  1  0
 33 70  1  0
 33 71  1  0
 33 72  1  0
 34 73  1  0
 35 74  1  0
 35 75  1  0
 36 76  1  0
 36 77  1  0
 37 78  1  0
 37 79  1  0
 38 80  1  0
 38 81  1  0
 39 82  1  0
 39 83  1  0
M  END
> <ID>
HT0479

> <Class>
1.0

> <Clusters>
202

> <Fold>
4

$$$$