
     RDKit          3D

 15 16  0  0  0  0  0  0  0  0999 V2000
    3.6853    0.1471   -0.6348 O   0  0  0  0  0  0  0  0  0  0  0  0
    2.4434    0.1415   -0.4286 C   0  0  0  0  0  0  0  0  0  0  0  0
    1.7475   -0.9778   -0.1167 N   0  0  0  0  0  0  0  0  0  0  0  0
    1.6911    1.2270   -0.4953 O   0  0  0  0  0  0  0  0  0  0  0  0
    0.4741    0.8230   -0.2231 C   0  0  0  0  0  0  0  0  0  0  0  0
   -0.6999    1.5674   -0.1602 C   0  0  0  0  0  0  0  0  0  0  0  0
    0.4919   -0.5225    0.0107 C   0  0  0  0  0  0  0  0  0  0  0  0
   -1.8889    0.8822    0.1568 C   0  0  0  0  0  0  0  0  0  0  0  0
   -0.6626   -1.2342    0.3267 C   0  0  0  0  0  0  0  0  0  0  0  0
   -1.8716   -0.5131    0.3995 C   0  0  0  0  0  0  0  0  0  0  0  0
   -3.3621   -1.3492    0.7929 Cl  0  0  0  0  0  0  0  0  0  0  0  0
    2.1011   -1.9540   -0.0033 H   0  0  0  0  0  0  0  0  0  0  0  0
   -0.6990    2.6331   -0.3479 H   0  0  0  0  0  0  0  0  0  0  0  0
   -2.8206    1.4302    0.2144 H   0  0  0  0  0  0  0  0  0  0  0  0
   -0.6297   -2.3007    0.5089 H   0  0  0  0  0  0  0  0  0  0  0  0
  1  2  2  0
  2  3  1  0
  2  4  1  0
  4  5  1  0
  5  6  1  0
  7  5  2  0
  6  8  2  0
  9  7  1  0
  7  3  1  0
  8 10  1  0
 10  9  2  0
 10 11  1  0
  3 12  1  0
  6 13  1  0
  8 14  1  0
  9 15  1  0
M  END
> <ID>
HT0473

> <Class>
1.0

> <Clusters>
255

> <Fold>
4

$$$$