
     RDKit          3D

 30 30  0  0  0  0  0  0  0  0999 V2000
   -4.6701    0.0362   -2.0159 C   0  0  0  0  0  0  0  0  0  0  0  0
   -4.7161    0.4764   -0.5533 C   0  0  0  0  0  0  0  0  0  0  0  0
   -3.7362   -0.3184    0.3195 C   0  0  0  0  0  0  0  0  0  0  0  0
   -2.3455    0.0333    0.0280 N   0  0  0  0  0  0  0  0  0  0  0  0
   -1.2558   -0.6063    0.7031 C   0  0  0  0  0  0  0  0  0  0  0  0
   -1.4815   -1.5000    1.5640 O   0  0  0  0  0  0  0  0  0  0  0  0
    0.0900   -0.2284    0.3972 N   0  0  0  0  0  0  0  0  0  0  0  0
    1.4456   -0.9684    1.1808 S   0  0  0  0  0  0  0  0  0  0  0  0
    1.3637   -0.7371    2.6639 O   0  0  0  0  0  0  0  0  0  0  0  0
    1.4427   -2.4474    0.9122 O   0  0  0  0  0  0  0  0  0  0  0  0
    2.9313   -0.2602    0.5560 C   0  0  0  0  0  0  0  0  0  0  0  0
    3.4813    0.8770    1.1649 C   0  0  0  0  0  0  0  0  0  0  0  0
    4.6532    1.4480    0.6588 C   0  0  0  0  0  0  0  0  0  0  0  0
    5.2785    0.8893   -0.4613 C   0  0  0  0  0  0  0  0  0  0  0  0
    6.7476    1.6071   -1.0962 Cl  0  0  0  0  0  0  0  0  0  0  0  0
    4.7280   -0.2402   -1.0765 C   0  0  0  0  0  0  0  0  0  0  0  0
    3.5561   -0.8123   -0.5715 C   0  0  0  0  0  0  0  0  0  0  0  0
   -3.6638    0.2136   -2.4494 H   0  0  0  0  0  0  0  0  0  0  0  0
   -4.9205   -1.0425   -2.1021 H   0  0  0  0  0  0  0  0  0  0  0  0
   -5.4124    0.6190   -2.6009 H   0  0  0  0  0  0  0  0  0  0  0  0
   -5.7469    0.3165   -0.1693 H   0  0  0  0  0  0  0  0  0  0  0  0
   -4.4913    1.5628   -0.4818 H   0  0  0  0  0  0  0  0  0  0  0  0
   -3.9477   -0.0937    1.3873 H   0  0  0  0  0  0  0  0  0  0  0  0
   -3.8892   -1.4081    0.1588 H   0  0  0  0  0  0  0  0  0  0  0  0
   -2.1272    0.7799   -0.6701 H   0  0  0  0  0  0  0  0  0  0  0  0
    0.2694    0.5119   -0.3169 H   0  0  0  0  0  0  0  0  0  0  0  0
    3.0031    1.3229    2.0277 H   0  0  0  0  0  0  0  0  0  0  0  0
    5.0726    2.3246    1.1358 H   0  0  0  0  0  0  0  0  0  0  0  0
    5.2053   -0.6736   -1.9462 H   0  0  0  0  0  0  0  0  0  0  0  0
    3.1360   -1.6818   -1.0608 H   0  0  0  0  0  0  0  0  0  0  0  0
  1  2  1  0
  2  3  1  0
  3  4  1  0
  4  5  1  0
  5  6  2  0
  5  7  1  0
  7  8  1  0
  8  9  2  0
  8 10  2  0
  8 11  1  0
 11 12  2  0
 12 13  1  0
 13 14  2  0
 14 15  1  0
 14 16  1  0
 16 17  2  0
 17 11  1  0
  1 18  1  0
  1 19  1  0
  1 20  1  0
  2 21  1  0
  2 22  1  0
  3 23  1  0
  3 24  1  0
  4 25  1  0
  7 26  1  0
 12 27  1  0
 13 28  1  0
 16 29  1  0
 17 30  1  0
M  END
> <ID>
HT0469

> <Class>
1.0

> <Clusters>
230

> <Fold>
4

$$$$