
     RDKit          3D

 51 53  0  0  0  0  0  0  0  0999 V2000
   -5.8574    4.6999    1.6234 C   0  0  0  0  0  0  0  0  0  0  0  0
   -5.1557    3.4506    1.2121 C   0  0  0  0  0  0  0  0  0  0  0  0
   -5.7487    2.6249    0.4663 O   0  0  0  0  0  0  0  0  0  0  0  0
   -3.8725    3.1863    1.7076 O   0  0  0  0  0  0  0  0  0  0  0  0
   -2.9862    2.2285    1.1925 C   0  0  0  0  0  0  0  0  0  0  0  0
   -2.0408    1.6619    2.0555 C   0  0  0  0  0  0  0  0  0  0  0  0
   -1.1285    0.7134    1.5851 C   0  0  0  0  0  0  0  0  0  0  0  0
   -1.1498    0.3189    0.2395 C   0  0  0  0  0  0  0  0  0  0  0  0
   -2.0733    0.9094   -0.6362 C   0  0  0  0  0  0  0  0  0  0  0  0
   -2.9870    1.8562   -0.1646 C   0  0  0  0  0  0  0  0  0  0  0  0
   -0.1557   -0.6581   -0.2620 C   0  0  0  0  0  0  0  0  0  0  0  0
   -0.5343   -1.8741   -0.7396 C   0  0  0  0  0  0  0  0  0  0  0  0
    0.4428   -2.8421   -1.3811 C   0  0  0  0  0  0  0  0  0  0  0  0
    0.3758   -4.2185   -0.6988 C   0  0  0  0  0  0  0  0  0  0  0  0
   -1.0594   -4.6736   -0.3423 C   0  0  0  0  0  0  0  0  0  0  0  0
   -2.1430   -3.8174   -1.0121 C   0  0  0  0  0  0  0  0  0  0  0  0
   -1.9785   -2.3366   -0.6377 C   0  0  0  0  0  0  0  0  0  0  0  0
    1.2650   -0.2520   -0.1684 C   0  0  0  0  0  0  0  0  0  0  0  0
    2.1474   -0.9397    0.6794 C   0  0  0  0  0  0  0  0  0  0  0  0
    3.4770   -0.5258    0.7965 C   0  0  0  0  0  0  0  0  0  0  0  0
    3.9441    0.5793    0.0748 C   0  0  0  0  0  0  0  0  0  0  0  0
    5.2848    0.9618    0.2335 O   0  0  0  0  0  0  0  0  0  0  0  0
    6.0508    1.6483   -0.7173 C   0  0  0  0  0  0  0  0  0  0  0  0
    5.7027    1.6882   -1.9283 O   0  0  0  0  0  0  0  0  0  0  0  0
    7.3568    2.2413   -0.3115 C   0  0  0  0  0  0  0  0  0  0  0  0
    3.0490    1.2919   -0.7456 C   0  0  0  0  0  0  0  0  0  0  0  0
    1.7191    0.8778   -0.8641 C   0  0  0  0  0  0  0  0  0  0  0  0
   -5.2075    5.3035    2.2912 H   0  0  0  0  0  0  0  0  0  0  0  0
   -6.1069    5.3002    0.7236 H   0  0  0  0  0  0  0  0  0  0  0  0
   -6.7921    4.4433    2.1638 H   0  0  0  0  0  0  0  0  0  0  0  0
   -2.0167    1.9554    3.0973 H   0  0  0  0  0  0  0  0  0  0  0  0
   -0.4074    0.2838    2.2699 H   0  0  0  0  0  0  0  0  0  0  0  0
   -2.0720    0.6509   -1.6880 H   0  0  0  0  0  0  0  0  0  0  0  0
   -3.6641    2.3202   -0.8683 H   0  0  0  0  0  0  0  0  0  0  0  0
    0.1592   -2.9561   -2.4498 H   0  0  0  0  0  0  0  0  0  0  0  0
    1.4928   -2.4883   -1.3841 H   0  0  0  0  0  0  0  0  0  0  0  0
    0.9861   -4.1896    0.2303 H   0  0  0  0  0  0  0  0  0  0  0  0
    0.8437   -4.9684   -1.3733 H   0  0  0  0  0  0  0  0  0  0  0  0
   -1.1982   -5.7360   -0.6392 H   0  0  0  0  0  0  0  0  0  0  0  0
   -1.1969   -4.6193    0.7606 H   0  0  0  0  0  0  0  0  0  0  0  0
   -2.0824   -3.9373   -2.1161 H   0  0  0  0  0  0  0  0  0  0  0  0
   -3.1466   -4.1700   -0.6896 H   0  0  0  0  0  0  0  0  0  0  0  0
   -2.6218   -1.7281   -1.3067 H   0  0  0  0  0  0  0  0  0  0  0  0
   -2.3302   -2.2024    0.4089 H   0  0  0  0  0  0  0  0  0  0  0  0
    1.8033   -1.7932    1.2508 H   0  0  0  0  0  0  0  0  0  0  0  0
    4.1495   -1.0680    1.4494 H   0  0  0  0  0  0  0  0  0  0  0  0
    7.3564    2.4504    0.7782 H   0  0  0  0  0  0  0  0  0  0  0  0
    7.5286    3.1932   -0.8568 H   0  0  0  0  0  0  0  0  0  0  0  0
    8.1749    1.5294   -0.5457 H   0  0  0  0  0  0  0  0  0  0  0  0
    3.3624    2.1851   -1.2682 H   0  0  0  0  0  0  0  0  0  0  0  0
    1.0415    1.4404   -1.4951 H   0  0  0  0  0  0  0  0  0  0  0  0
  1  2  1  0
  2  3  2  0
  2  4  1  0
  4  5  1  0
  5  6  2  0
  6  7  1  0
  7  8  2  0
  8  9  1  0
  9 10  2  0
 10  5  1  0
  8 11  1  0
 11 12  2  3
 12 13  1  0
 13 14  1  0
 14 15  1  0
 15 16  1  0
 16 17  1  0
 17 12  1  0
 11 18  1  0
 18 19  2  0
 19 20  1  0
 20 21  2  0
 21 22  1  0
 22 23  1  0
 23 24  2  0
 23 25  1  0
 21 26  1  0
 26 27  2  0
 27 18  1  0
  1 28  1  0
  1 29  1  0
  1 30  1  0
  6 31  1  0
  7 32  1  0
  9 33  1  0
 10 34  1  0
 13 35  1  0
 13 36  1  0
 14 37  1  0
 14 38  1  0
 15 39  1  0
 15 40  1  0
 16 41  1  0
 16 42  1  0
 17 43  1  0
 17 44  1  0
 19 45  1  0
 20 46  1  0
 25 47  1  0
 25 48  1  0
 25 49  1  0
 26 50  1  0
 27 51  1  0
M  END
> <ID>
HT0565

> <Class>
1.0

> <Clusters>
273

> <Fold>
4

$$$$