
     RDKit          3D

 43 46  0  0  0  0  0  0  0  0999 V2000
    4.7950   -0.5477    1.7422 C   0  0  0  0  0  0  0  0  0  0  0  0
    3.6325   -0.1947    0.9125 N   0  0  0  0  0  0  0  0  0  0  0  0
    2.7602    0.7366    1.6498 C   0  0  0  0  0  0  0  0  0  0  0  0
    1.6321    1.2375    0.7480 C   0  0  0  0  0  0  0  0  0  0  0  0
    0.9023    0.0960    0.0579 C   0  0  0  0  0  0  0  0  0  0  0  0
   -0.4199    0.1917   -0.2588 C   0  0  0  0  0  0  0  0  0  0  0  0
   -1.1392   -0.8674   -0.9908 C   0  0  0  0  0  0  0  0  0  0  0  0
   -0.7848   -1.1559   -2.3205 C   0  0  0  0  0  0  0  0  0  0  0  0
   -1.4534   -2.1539   -3.0286 C   0  0  0  0  0  0  0  0  0  0  0  0
   -2.4855   -2.8665   -2.4213 C   0  0  0  0  0  0  0  0  0  0  0  0
   -2.8572   -2.5773   -1.1070 C   0  0  0  0  0  0  0  0  0  0  0  0
   -2.2081   -1.5615   -0.3861 C   0  0  0  0  0  0  0  0  0  0  0  0
   -2.6313   -1.3206    1.0151 C   0  0  0  0  0  0  0  0  0  0  0  0
   -2.6822   -0.1290    1.6305 C   0  0  0  0  0  0  0  0  0  0  0  0
   -2.3338    1.1801    1.0249 C   0  0  0  0  0  0  0  0  0  0  0  0
   -3.0683    2.3105    1.4214 C   0  0  0  0  0  0  0  0  0  0  0  0
   -2.7718    3.5734    0.9004 C   0  0  0  0  0  0  0  0  0  0  0  0
   -1.7331    3.7252   -0.0166 C   0  0  0  0  0  0  0  0  0  0  0  0
   -0.9774    2.6175   -0.4014 C   0  0  0  0  0  0  0  0  0  0  0  0
   -1.2512    1.3457    0.1348 C   0  0  0  0  0  0  0  0  0  0  0  0
    1.7401   -1.0856   -0.4024 C   0  0  0  0  0  0  0  0  0  0  0  0
    2.8718   -1.4100    0.5739 C   0  0  0  0  0  0  0  0  0  0  0  0
    5.4049    0.3592    1.9455 H   0  0  0  0  0  0  0  0  0  0  0  0
    5.4484   -1.2694    1.2070 H   0  0  0  0  0  0  0  0  0  0  0  0
    4.4781   -0.9956    2.7114 H   0  0  0  0  0  0  0  0  0  0  0  0
    3.3431    1.6221    1.9905 H   0  0  0  0  0  0  0  0  0  0  0  0
    2.3279    0.2494    2.5547 H   0  0  0  0  0  0  0  0  0  0  0  0
    2.0598    1.9059   -0.0317 H   0  0  0  0  0  0  0  0  0  0  0  0
    0.9499    1.8378    1.3877 H   0  0  0  0  0  0  0  0  0  0  0  0
    0.0129   -0.6097   -2.8066 H   0  0  0  0  0  0  0  0  0  0  0  0
   -1.1663   -2.3786   -4.0484 H   0  0  0  0  0  0  0  0  0  0  0  0
   -2.9975   -3.6459   -2.9691 H   0  0  0  0  0  0  0  0  0  0  0  0
   -3.6610   -3.1427   -0.6545 H   0  0  0  0  0  0  0  0  0  0  0  0
   -3.0142   -2.1740    1.5652 H   0  0  0  0  0  0  0  0  0  0  0  0
   -3.1049   -0.1129    2.6292 H   0  0  0  0  0  0  0  0  0  0  0  0
   -3.8811    2.2123    2.1288 H   0  0  0  0  0  0  0  0  0  0  0  0
   -3.3487    4.4343    1.2081 H   0  0  0  0  0  0  0  0  0  0  0  0
   -1.5054    4.7029   -0.4232 H   0  0  0  0  0  0  0  0  0  0  0  0
   -0.1668    2.7517   -1.1076 H   0  0  0  0  0  0  0  0  0  0  0  0
    1.1281   -2.0043   -0.5010 H   0  0  0  0  0  0  0  0  0  0  0  0
    2.1715   -0.8480   -1.4003 H   0  0  0  0  0  0  0  0  0  0  0  0
    2.4455   -1.8818    1.4888 H   0  0  0  0  0  0  0  0  0  0  0  0
    3.5389   -2.1568    0.0890 H   0  0  0  0  0  0  0  0  0  0  0  0
  1  2  1  0
  2  3  1  0
  3  4  1  0
  4  5  1  0
  5  6  2  3
  6  7  1  0
  7  8  2  0
  8  9  1  0
  9 10  2  0
 10 11  1  0
 11 12  2  0
 12  7  1  0
 12 13  1  0
 13 14  2  0
 14 15  1  0
 15 16  2  0
 16 17  1  0
 17 18  2  0
 18 19  1  0
 19 20  2  0
 20  6  1  0
 20 15  1  0
  5 21  1  0
 21 22  1  0
 22  2  1  0
  1 23  1  0
  1 24  1  0
  1 25  1  0
  3 26  1  0
  3 27  1  0
  4 28  1  0
  4 29  1  0
  8 30  1  0
  9 31  1  0
 10 32  1  0
 11 33  1  0
 13 34  1  0
 14 35  1  0
 16 36  1  0
 17 37  1  0
 18 38  1  0
 19 39  1  0
 21 40  1  0
 21 41  1  0
 22 42  1  0
 22 43  1  0
M  END
> <ID>
HT0575

> <Class>
1.0

> <Clusters>
26

> <Fold>
4

$$$$