
     RDKit          3D

 43 47  0  0  0  0  0  0  0  0999 V2000
    5.3915   -0.5710   -0.7661 C   0  0  0  0  0  0  0  0  0  0  0  0
    4.2144    0.0578   -0.2708 O   0  0  0  0  0  0  0  0  0  0  0  0
    2.9354   -0.5127   -0.3279 C   0  0  0  0  0  0  0  0  0  0  0  0
    2.6779   -1.7782   -0.9081 C   0  0  0  0  0  0  0  0  0  0  0  0
    1.3511   -2.2350   -1.0514 C   0  0  0  0  0  0  0  0  0  0  0  0
    0.2830   -1.4790   -0.5332 C   0  0  0  0  0  0  0  0  0  0  0  0
   -1.1353   -1.7033   -1.0073 C   0  0  0  0  0  0  0  0  0  0  0  0
   -2.1563   -0.7389   -0.3407 C   0  0  2  0  0  0  0  0  0  0  0  0
   -1.5887    0.7168   -0.2352 C   0  0  2  0  0  0  0  0  0  0  0  0
   -1.1617    1.3186   -1.5561 C   0  0  0  0  0  0  0  0  0  0  0  0
   -0.3554    2.3908   -1.5556 C   0  0  0  0  0  0  0  0  0  0  0  0
    0.0627    3.0289   -0.2462 C   0  0  2  0  0  0  0  0  0  0  0  0
    1.1101    3.9387   -0.4591 O   0  0  0  0  0  0  0  0  0  0  0  0
    0.4907    1.9678    0.7995 C   0  0  2  0  0  0  0  0  0  0  0  0
    1.8319    1.5268    0.5507 O   0  0  0  0  0  0  0  0  0  0  0  0
    1.8462    0.2007    0.1729 C   0  0  0  0  0  0  0  0  0  0  0  0
    0.5913   -0.3285    0.1968 C   0  0  0  0  0  0  0  0  0  0  0  0
   -0.3930    0.6604    0.7414 C   0  0  2  0  0  0  0  0  0  0  0  0
   -0.8768    0.2086    2.1550 C   0  0  0  0  0  0  0  0  0  0  0  0
   -2.2893   -0.4106    2.1467 C   0  0  0  0  0  0  0  0  0  0  0  0
   -2.4878   -1.3170    0.9962 N   0  0  0  0  0  0  0  0  0  0  0  0
   -3.8457   -1.8828    1.0193 C   0  0  0  0  0  0  0  0  0  0  0  0
    5.5651   -1.5295   -0.2329 H   0  0  0  0  0  0  0  0  0  0  0  0
    6.2602    0.0962   -0.5914 H   0  0  0  0  0  0  0  0  0  0  0  0
    5.2962   -0.7534   -1.8573 H   0  0  0  0  0  0  0  0  0  0  0  0
    3.4800   -2.3727   -1.3236 H   0  0  0  0  0  0  0  0  0  0  0  0
    1.1552   -3.1365   -1.6182 H   0  0  0  0  0  0  0  0  0  0  0  0
   -1.4268   -2.7597   -0.8203 H   0  0  0  0  0  0  0  0  0  0  0  0
   -1.1611   -1.5486   -2.1074 H   0  0  0  0  0  0  0  0  0  0  0  0
   -3.0584   -0.6920   -0.9947 H   0  0  0  0  0  0  0  0  0  0  0  0
   -2.3735    1.3911    0.1736 H   0  0  0  0  0  0  0  0  0  0  0  0
   -1.4468    0.8579   -2.4968 H   0  0  0  0  0  0  0  0  0  0  0  0
    0.0075    2.7896   -2.4982 H   0  0  0  0  0  0  0  0  0  0  0  0
   -0.8212    3.5685    0.1677 H   0  0  0  0  0  0  0  0  0  0  0  0
    0.7114    4.7395   -0.8903 H   0  0  0  0  0  0  0  0  0  0  0  0
    0.4669    2.4418    1.8041 H   0  0  0  0  0  0  0  0  0  0  0  0
   -0.1636   -0.5207    2.6010 H   0  0  0  0  0  0  0  0  0  0  0  0
   -0.9139    1.0715    2.8534 H   0  0  0  0  0  0  0  0  0  0  0  0
   -2.4231   -0.9758    3.0954 H   0  0  0  0  0  0  0  0  0  0  0  0
   -3.0527    0.4002    2.1380 H   0  0  0  0  0  0  0  0  0  0  0  0
   -4.0290   -2.4061    1.9823 H   0  0  0  0  0  0  0  0  0  0  0  0
   -4.6098   -1.0853    0.8858 H   0  0  0  0  0  0  0  0  0  0  0  0
   -3.9591   -2.6351    0.2091 H   0  0  0  0  0  0  0  0  0  0  0  0
  1  2  1  0
  2  3  1  0
  3  4  2  0
  4  5  1  0
  5  6  2  0
  6  7  1  0
  8  7  1  0
  8  9  1  0
  9 10  1  0
 10 11  2  0
 11 12  1  0
 12 13  1  0
 12 14  1  0
 14 15  1  0
 15 16  1  0
 16  3  1  0
 16 17  2  0
 17  6  1  0
 17 18  1  0
 18  9  1  0
 18 14  1  0
 18 19  1  1
 19 20  1  0
 20 21  1  0
 21  8  1  0
 21 22  1  0
  1 23  1  0
  1 24  1  0
  1 25  1  0
  4 26  1  0
  5 27  1  0
  7 28  1  0
  7 29  1  0
  8 30  1  6
  9 31  1  1
 10 32  1  0
 11 33  1  0
 12 34  1  1
 13 35  1  0
 14 36  1  1
 19 37  1  0
 19 38  1  0
 20 39  1  0
 20 40  1  0
 22 41  1  0
 22 42  1  0
 22 43  1  0
M  END
> <ID>
HT0541

> <Class>
1.0

> <Clusters>
63

> <Fold>
4

$$$$