
     RDKit          3D

 37 39  0  0  0  0  0  0  0  0999 V2000
   -2.7560    3.3691    0.4867 C   0  0  0  0  0  0  0  0  0  0  0  0
   -1.8190    2.3839    0.0583 O   0  0  0  0  0  0  0  0  0  0  0  0
   -1.4893    1.2419    0.7977 C   0  0  0  0  0  0  0  0  0  0  0  0
   -2.0453    1.0066    1.9061 O   0  0  0  0  0  0  0  0  0  0  0  0
   -0.4768    0.2738    0.2387 C   0  0  1  0  0  0  0  0  0  0  0  0
    0.5515   -0.1069    1.2519 N   0  0  0  0  0  0  0  0  0  0  0  0
    1.2266    1.0618    1.8843 C   0  0  0  0  0  0  0  0  0  0  0  0
    2.0561    1.9020    0.8864 C   0  0  0  0  0  0  0  0  0  0  0  0
    2.7720    1.0156   -0.0813 C   0  0  0  0  0  0  0  0  0  0  0  0
    3.8868    1.4823   -1.2464 S   0  0  0  0  0  0  0  0  0  0  0  0
    4.1005   -0.0571   -1.9028 C   0  0  0  0  0  0  0  0  0  0  0  0
    3.2848   -0.9507   -1.2162 C   0  0  0  0  0  0  0  0  0  0  0  0
    2.5307   -0.3390   -0.2080 C   0  0  0  0  0  0  0  0  0  0  0  0
    1.5715   -1.0436    0.7073 C   0  0  0  0  0  0  0  0  0  0  0  0
   -1.2304   -0.9472   -0.2748 C   0  0  0  0  0  0  0  0  0  0  0  0
   -1.8078   -1.8389    0.6522 C   0  0  0  0  0  0  0  0  0  0  0  0
   -2.4984   -2.9720    0.2183 C   0  0  0  0  0  0  0  0  0  0  0  0
   -2.6240   -3.2346   -1.1451 C   0  0  0  0  0  0  0  0  0  0  0  0
   -2.0586   -2.3652   -2.0787 C   0  0  0  0  0  0  0  0  0  0  0  0
   -1.3627   -1.2245   -1.6585 C   0  0  0  0  0  0  0  0  0  0  0  0
   -0.6814   -0.1818   -2.9046 Cl  0  0  0  0  0  0  0  0  0  0  0  0
   -2.2458    4.3521    0.5495 H   0  0  0  0  0  0  0  0  0  0  0  0
   -3.5760    3.4383   -0.2573 H   0  0  0  0  0  0  0  0  0  0  0  0
   -3.1938    3.1316    1.4790 H   0  0  0  0  0  0  0  0  0  0  0  0
    0.0263    0.7911   -0.6018 H   0  0  0  0  0  0  0  0  0  0  0  0
    0.4933    1.7153    2.4010 H   0  0  0  0  0  0  0  0  0  0  0  0
    1.9052    0.6934    2.6856 H   0  0  0  0  0  0  0  0  0  0  0  0
    1.3917    2.5917    0.3241 H   0  0  0  0  0  0  0  0  0  0  0  0
    2.7970    2.5110    1.4466 H   0  0  0  0  0  0  0  0  0  0  0  0
    4.7585   -0.3094   -2.7232 H   0  0  0  0  0  0  0  0  0  0  0  0
    3.2342   -2.0068   -1.4459 H   0  0  0  0  0  0  0  0  0  0  0  0
    1.1010   -1.8986    0.1784 H   0  0  0  0  0  0  0  0  0  0  0  0
    2.1487   -1.4820    1.5495 H   0  0  0  0  0  0  0  0  0  0  0  0
   -1.7147   -1.6603    1.7161 H   0  0  0  0  0  0  0  0  0  0  0  0
   -2.9350   -3.6489    0.9413 H   0  0  0  0  0  0  0  0  0  0  0  0
   -3.1594   -4.1138   -1.4794 H   0  0  0  0  0  0  0  0  0  0  0  0
   -2.1621   -2.5803   -3.1348 H   0  0  0  0  0  0  0  0  0  0  0  0
  1  2  1  0
  2  3  1  0
  3  4  2  0
  5  3  1  0
  5  6  1  0
  6  7  1  0
  7  8  1  0
  8  9  1  0
  9 10  1  0
 10 11  1  0
 11 12  2  0
 12 13  1  0
 13  9  2  0
 13 14  1  0
 14  6  1  0
  5 15  1  0
 15 16  2  0
 16 17  1  0
 17 18  2  0
 18 19  1  0
 19 20  2  0
 20 15  1  0
 20 21  1  0
  1 22  1  0
  1 23  1  0
  1 24  1  0
  5 25  1  6
  7 26  1  0
  7 27  1  0
  8 28  1  0
  8 29  1  0
 11 30  1  0
 12 31  1  0
 14 32  1  0
 14 33  1  0
 16 34  1  0
 17 35  1  0
 18 36  1  0
 19 37  1  0
M  END
> <ID>
HT0532

> <Class>
1.0

> <Clusters>
61

> <Fold>
4

$$$$