
     RDKit          3D

 31 33  0  0  0  0  0  0  0  0999 V2000
    5.0633   -0.3905    0.8668 N   0  0  0  0  0  0  0  0  0  0  0  0
    3.7149    0.0761    0.8201 C   0  0  0  0  0  0  0  0  0  0  0  0
    3.3003    1.0885    1.6396 N   0  0  0  0  0  0  0  0  0  0  0  0
    2.0061    1.5436    1.6149 C   0  0  0  0  0  0  0  0  0  0  0  0
    1.5176    2.8381    2.6859 Cl  0  0  0  0  0  0  0  0  0  0  0  0
    1.0932    0.9901    0.7615 N   0  0  0  0  0  0  0  0  0  0  0  0
    1.5091   -0.0084   -0.0543 C   0  0  0  0  0  0  0  0  0  0  0  0
    2.7775   -0.4771   -0.0450 C   0  0  0  0  0  0  0  0  0  0  0  0
    2.9132   -1.4902   -0.9215 N   0  0  0  0  0  0  0  0  0  0  0  0
    1.6633   -1.5980   -1.4519 C   0  0  0  0  0  0  0  0  0  0  0  0
    0.7829   -0.6959   -0.9464 N   0  0  0  0  0  0  0  0  0  0  0  0
   -0.6491   -0.5984   -1.2393 C   0  0  2  0  0  0  0  0  0  0  0  0
   -1.0814    0.7401   -1.1411 O   0  0  0  0  0  0  0  0  0  0  0  0
   -2.3734    0.7417   -0.5684 C   0  0  2  0  0  0  0  0  0  0  0  0
   -2.3692    1.6647    0.6600 C   0  0  0  0  0  0  0  0  0  0  0  0
   -3.6627    1.8022    1.1844 O   0  0  0  0  0  0  0  0  0  0  0  0
   -2.7716   -0.6991   -0.2052 C   0  0  1  0  0  0  0  0  0  0  0  0
   -3.7227   -1.2127   -1.1087 O   0  0  0  0  0  0  0  0  0  0  0  0
   -1.4718   -1.4566   -0.2898 C   0  0  2  0  0  0  0  0  0  0  0  0
   -0.8855   -1.5173    0.9659 F   0  0  0  0  0  0  0  0  0  0  0  0
    5.3865   -1.1645    0.2447 H   0  0  0  0  0  0  0  0  0  0  0  0
    5.7452    0.0421    1.5286 H   0  0  0  0  0  0  0  0  0  0  0  0
    1.3986   -2.3402   -2.1941 H   0  0  0  0  0  0  0  0  0  0  0  0
   -0.8274   -0.9404   -2.2840 H   0  0  0  0  0  0  0  0  0  0  0  0
   -3.0853    1.1620   -1.3133 H   0  0  0  0  0  0  0  0  0  0  0  0
   -1.9626    2.6635    0.3806 H   0  0  0  0  0  0  0  0  0  0  0  0
   -1.7066    1.2428    1.4457 H   0  0  0  0  0  0  0  0  0  0  0  0
   -4.1538    2.4115    0.5734 H   0  0  0  0  0  0  0  0  0  0  0  0
   -3.1969   -0.7763    0.8201 H   0  0  0  0  0  0  0  0  0  0  0  0
   -3.3452   -1.1529   -2.0257 H   0  0  0  0  0  0  0  0  0  0  0  0
   -1.6063   -2.4885   -0.6821 H   0  0  0  0  0  0  0  0  0  0  0  0
  1  2  1  0
  2  3  2  0
  3  4  1  0
  4  5  1  0
  4  6  2  0
  6  7  1  0
  7  8  2  0
  8  2  1  0
  8  9  1  0
  9 10  2  0
 10 11  1  0
 11  7  1  0
 12 11  1  0
 12 13  1  0
 13 14  1  0
 14 15  1  0
 15 16  1  0
 14 17  1  0
 17 18  1  0
 17 19  1  0
 19 12  1  0
 19 20  1  0
  1 21  1  0
  1 22  1  0
 10 23  1  0
 12 24  1  6
 14 25  1  6
 15 26  1  0
 15 27  1  0
 16 28  1  0
 17 29  1  1
 18 30  1  0
 19 31  1  6
M  END
> <ID>
HT0521

> <Class>
1.0

> <Clusters>
58

> <Fold>
4

$$$$