
     RDKit          3D

 42 45  0  0  0  0  0  0  0  0999 V2000
   -5.4151    3.3367   -0.7061 O   0  0  0  0  0  0  0  0  0  0  0  0
   -5.1848    2.0242   -0.2974 C   0  0  0  0  0  0  0  0  0  0  0  0
   -6.1731    1.2944   -0.0189 O   0  0  0  0  0  0  0  0  0  0  0  0
   -3.8129    1.4659   -0.2174 C   0  0  0  0  0  0  0  0  0  0  0  0
   -3.6000    0.1237   -0.5546 C   0  0  0  0  0  0  0  0  0  0  0  0
   -2.3596   -0.4478   -0.4752 N   0  0  0  0  0  0  0  0  0  0  0  0
   -2.2328   -1.8721   -0.8395 C   0  0  0  0  0  0  0  0  0  0  0  0
   -3.2194   -2.8119   -0.1475 C   0  0  0  0  0  0  0  0  0  0  0  0
   -1.7753   -2.7690    0.3070 C   0  0  0  0  0  0  0  0  0  0  0  0
   -1.2589    0.3200   -0.1555 C   0  0  0  0  0  0  0  0  0  0  0  0
    0.0530   -0.2063   -0.1990 C   0  0  0  0  0  0  0  0  0  0  0  0
    1.1607    0.5733    0.1635 C   0  0  0  0  0  0  0  0  0  0  0  0
    2.4855    0.0140    0.1264 N   0  0  0  0  0  0  0  0  0  0  0  0
    3.4730    0.5510   -0.8153 C   0  0  0  0  0  0  0  0  0  0  0  0
    4.8780    0.4169   -0.2243 C   0  0  0  0  0  0  0  0  0  0  0  0
    5.1254   -0.9698    0.1918 N   0  0  0  0  0  0  0  0  0  0  0  0
    4.1769   -1.3686    1.2398 C   0  0  0  0  0  0  0  0  0  0  0  0
    2.7418   -1.3060    0.7114 C   0  0  0  0  0  0  0  0  0  0  0  0
    0.9679    1.8981    0.5715 C   0  0  0  0  0  0  0  0  0  0  0  0
    2.0229    2.6561    0.9638 F   0  0  0  0  0  0  0  0  0  0  0  0
   -0.3132    2.4471    0.5944 C   0  0  0  0  0  0  0  0  0  0  0  0
   -1.4315    1.6775    0.2212 C   0  0  0  0  0  0  0  0  0  0  0  0
   -2.7212    2.2374    0.2096 C   0  0  0  0  0  0  0  0  0  0  0  0
   -2.8990    3.4264    0.5950 O   0  0  0  0  0  0  0  0  0  0  0  0
   -4.6735    3.9274   -1.0608 H   0  0  0  0  0  0  0  0  0  0  0  0
   -4.4446   -0.4689   -0.8896 H   0  0  0  0  0  0  0  0  0  0  0  0
   -1.8962   -2.1376   -1.8641 H   0  0  0  0  0  0  0  0  0  0  0  0
   -3.9155   -2.3620    0.5922 H   0  0  0  0  0  0  0  0  0  0  0  0
   -3.4750   -3.7242   -0.7262 H   0  0  0  0  0  0  0  0  0  0  0  0
   -1.1717   -3.6448   -0.0116 H   0  0  0  0  0  0  0  0  0  0  0  0
   -1.6247   -2.2617    1.2842 H   0  0  0  0  0  0  0  0  0  0  0  0
    0.2353   -1.2168   -0.5350 H   0  0  0  0  0  0  0  0  0  0  0  0
    3.2723    1.6206   -1.0393 H   0  0  0  0  0  0  0  0  0  0  0  0
    3.4145   -0.0180   -1.7684 H   0  0  0  0  0  0  0  0  0  0  0  0
    5.6230    0.7062   -0.9966 H   0  0  0  0  0  0  0  0  0  0  0  0
    4.9923    1.1104    0.6397 H   0  0  0  0  0  0  0  0  0  0  0  0
    6.0879   -1.0121    0.6010 H   0  0  0  0  0  0  0  0  0  0  0  0
    4.2805   -0.7088    2.1312 H   0  0  0  0  0  0  0  0  0  0  0  0
    4.3987   -2.4102    1.5577 H   0  0  0  0  0  0  0  0  0  0  0  0
    2.5956   -2.0886   -0.0644 H   0  0  0  0  0  0  0  0  0  0  0  0
    2.0389   -1.5015    1.5509 H   0  0  0  0  0  0  0  0  0  0  0  0
   -0.4259    3.4796    0.9023 H   0  0  0  0  0  0  0  0  0  0  0  0
  1  2  1  0
  2  3  2  0
  2  4  1  0
  4  5  2  0
  5  6  1  0
  6  7  1  0
  7  8  1  0
  8  9  1  0
  9  7  1  0
  6 10  1  0
 10 11  2  0
 11 12  1  0
 12 13  1  0
 13 14  1  0
 14 15  1  0
 15 16  1  0
 16 17  1  0
 17 18  1  0
 18 13  1  0
 12 19  2  0
 19 20  1  0
 19 21  1  0
 21 22  2  0
 22 10  1  0
 22 23  1  0
 23  4  1  0
 23 24  2  0
  1 25  1  0
  5 26  1  0
  7 27  1  0
  8 28  1  0
  8 29  1  0
  9 30  1  0
  9 31  1  0
 11 32  1  0
 14 33  1  0
 14 34  1  0
 15 35  1  0
 15 36  1  0
 16 37  1  0
 17 38  1  0
 17 39  1  0
 18 40  1  0
 18 41  1  0
 21 42  1  0
M  END
> <ID>
HT0497

> <Class>
1.0

> <Clusters>
184

> <Fold>
4

$$$$