
     RDKit          3D

 29 29  0  0  0  0  0  0  0  0999 V2000
    4.1135    1.1512    0.4689 Cl  0  0  0  0  0  0  0  0  0  0  0  0
    2.4210    1.6396    0.1801 C   0  0  0  0  0  0  0  0  0  0  0  0
    1.7632    0.7926   -0.9293 C   0  0  0  0  0  0  0  0  0  0  0  0
    1.0043   -0.3934   -0.4629 N   0  0  0  0  0  0  0  0  0  0  0  0
    1.7729   -1.3507    0.3574 C   0  0  0  0  0  0  0  0  0  0  0  0
    2.7967   -2.1210   -0.4804 C   0  0  0  0  0  0  0  0  0  0  0  0
    1.9986   -2.9955   -1.8145 Cl  0  0  0  0  0  0  0  0  0  0  0  0
   -0.5082    0.0480    0.3490 P   0  0  0  0  0  0  0  0  0  0  0  0
   -0.2392    0.4700    1.7774 O   0  0  0  0  0  0  0  0  0  0  0  0
   -1.3186    1.3474   -0.5165 N   0  0  0  0  0  0  0  0  0  0  0  0
   -2.6832    1.4896   -0.0002 C   0  0  0  0  0  0  0  0  0  0  0  0
   -3.4651    0.1668   -0.0536 C   0  0  0  0  0  0  0  0  0  0  0  0
   -2.8044   -0.8979    0.8363 C   0  0  0  0  0  0  0  0  0  0  0  0
   -1.5475   -1.3028    0.3403 O   0  0  0  0  0  0  0  0  0  0  0  0
    2.4412    2.7018   -0.1437 H   0  0  0  0  0  0  0  0  0  0  0  0
    1.8618    1.5968    1.1329 H   0  0  0  0  0  0  0  0  0  0  0  0
    1.0860    1.4489   -1.5156 H   0  0  0  0  0  0  0  0  0  0  0  0
    2.5318    0.4754   -1.6647 H   0  0  0  0  0  0  0  0  0  0  0  0
    1.0869   -2.1075    0.7994 H   0  0  0  0  0  0  0  0  0  0  0  0
    2.2761   -0.8458    1.2078 H   0  0  0  0  0  0  0  0  0  0  0  0
    3.3119   -2.8625    0.1660 H   0  0  0  0  0  0  0  0  0  0  0  0
    3.5675   -1.4412   -0.8954 H   0  0  0  0  0  0  0  0  0  0  0  0
   -1.3801    1.0568   -1.5196 H   0  0  0  0  0  0  0  0  0  0  0  0
   -2.6518    1.8734    1.0434 H   0  0  0  0  0  0  0  0  0  0  0  0
   -3.2205    2.2476   -0.6100 H   0  0  0  0  0  0  0  0  0  0  0  0
   -3.5217   -0.2005   -1.1014 H   0  0  0  0  0  0  0  0  0  0  0  0
   -4.5009    0.3470    0.3064 H   0  0  0  0  0  0  0  0  0  0  0  0
   -3.4661   -1.7892    0.8527 H   0  0  0  0  0  0  0  0  0  0  0  0
   -2.7262   -0.5449    1.8899 H   0  0  0  0  0  0  0  0  0  0  0  0
  1  2  1  0
  2  3  1  0
  3  4  1  0
  4  5  1  0
  5  6  1  0
  6  7  1  0
  4  8  1  0
  8  9  2  0
  8 10  1  0
 10 11  1  0
 11 12  1  0
 12 13  1  0
 13 14  1  0
 14  8  1  0
  2 15  1  0
  2 16  1  0
  3 17  1  0
  3 18  1  0
  5 19  1  0
  5 20  1  0
  6 21  1  0
  6 22  1  0
 10 23  1  0
 11 24  1  0
 11 25  1  0
 12 26  1  0
 12 27  1  0
 13 28  1  0
 13 29  1  0
M  END
> <ID>
HT0568

> <Class>
1.0

> <Clusters>
65

> <Fold>
4

$$$$