
     RDKit          3D

 40 42  0  0  0  0  0  0  0  0999 V2000
    3.9400   -2.2997   -0.2895 C   0  0  0  0  0  0  0  0  0  0  0  0
    2.4844   -2.4590   -0.2468 N   0  0  0  0  0  0  0  0  0  0  0  0
    1.7927   -1.6290   -1.2472 C   0  0  0  0  0  0  0  0  0  0  0  0
    1.9640   -0.1070   -1.0428 C   0  0  0  0  0  0  0  0  0  0  0  0
    1.4782    0.4011    0.3352 C   0  0  2  0  0  0  0  0  0  0  0  0
    0.1877   -0.1235    0.6743 O   0  0  0  0  0  0  0  0  0  0  0  0
   -1.0410    0.1042    0.0210 C   0  0  0  0  0  0  0  0  0  0  0  0
   -1.1957    1.0793   -0.9850 C   0  0  0  0  0  0  0  0  0  0  0  0
   -2.4308    1.2742   -1.6048 C   0  0  0  0  0  0  0  0  0  0  0  0
   -3.5343    0.5072   -1.2362 C   0  0  0  0  0  0  0  0  0  0  0  0
   -3.4115   -0.4663   -0.2370 C   0  0  0  0  0  0  0  0  0  0  0  0
   -4.5214   -1.2400    0.1372 C   0  0  0  0  0  0  0  0  0  0  0  0
   -4.3974   -2.2117    1.1322 C   0  0  0  0  0  0  0  0  0  0  0  0
   -3.1684   -2.4198    1.7603 C   0  0  0  0  0  0  0  0  0  0  0  0
   -2.0545   -1.6574    1.3990 C   0  0  0  0  0  0  0  0  0  0  0  0
   -2.1595   -0.6713    0.3989 C   0  0  0  0  0  0  0  0  0  0  0  0
    1.5145    1.9013    0.4957 C   0  0  0  0  0  0  0  0  0  0  0  0
    2.0463    2.8428   -0.3846 C   0  0  0  0  0  0  0  0  0  0  0  0
    1.9483    4.1583    0.0845 C   0  0  0  0  0  0  0  0  0  0  0  0
    1.3532    4.2637    1.3340 C   0  0  0  0  0  0  0  0  0  0  0  0
    0.9502    2.7178    1.8543 S   0  0  0  0  0  0  0  0  0  0  0  0
    4.2452   -1.3238    0.1448 H   0  0  0  0  0  0  0  0  0  0  0  0
    4.3183   -2.3870   -1.3308 H   0  0  0  0  0  0  0  0  0  0  0  0
    4.4094   -3.1047    0.3134 H   0  0  0  0  0  0  0  0  0  0  0  0
    2.1369   -2.2397    0.7144 H   0  0  0  0  0  0  0  0  0  0  0  0
    0.7106   -1.8800   -1.2275 H   0  0  0  0  0  0  0  0  0  0  0  0
    2.1523   -1.8983   -2.2645 H   0  0  0  0  0  0  0  0  0  0  0  0
    3.0308    0.1683   -1.1833 H   0  0  0  0  0  0  0  0  0  0  0  0
    1.4034    0.4003   -1.8540 H   0  0  0  0  0  0  0  0  0  0  0  0
    2.1891    0.0147    1.0947 H   0  0  0  0  0  0  0  0  0  0  0  0
   -0.3774    1.7062   -1.2967 H   0  0  0  0  0  0  0  0  0  0  0  0
   -2.5335    2.0281   -2.3748 H   0  0  0  0  0  0  0  0  0  0  0  0
   -4.4836    0.6760   -1.7308 H   0  0  0  0  0  0  0  0  0  0  0  0
   -5.4834   -1.0936   -0.3398 H   0  0  0  0  0  0  0  0  0  0  0  0
   -5.2562   -2.8058    1.4168 H   0  0  0  0  0  0  0  0  0  0  0  0
   -3.0782   -3.1753    2.5302 H   0  0  0  0  0  0  0  0  0  0  0  0
   -1.1150   -1.8445    1.9041 H   0  0  0  0  0  0  0  0  0  0  0  0
    2.4940    2.5980   -1.3381 H   0  0  0  0  0  0  0  0  0  0  0  0
    2.3078    5.0131   -0.4726 H   0  0  0  0  0  0  0  0  0  0  0  0
    1.1846    5.1827    1.8786 H   0  0  0  0  0  0  0  0  0  0  0  0
  1  2  1  0
  2  3  1  0
  3  4  1  0
  5  4  1  0
  5  6  1  0
  6  7  1  0
  7  8  2  0
  8  9  1  0
  9 10  2  0
 10 11  1  0
 11 12  2  0
 12 13  1  0
 13 14  2  0
 14 15  1  0
 15 16  2  0
 16  7  1  0
 16 11  1  0
  5 17  1  0
 17 18  2  0
 18 19  1  0
 19 20  2  0
 20 21  1  0
 21 17  1  0
  1 22  1  0
  1 23  1  0
  1 24  1  0
  2 25  1  0
  3 26  1  0
  3 27  1  0
  4 28  1  0
  4 29  1  0
  5 30  1  1
  8 31  1  0
  9 32  1  0
 10 33  1  0
 12 34  1  0
 13 35  1  0
 14 36  1  0
 15 37  1  0
 18 38  1  0
 19 39  1  0
 20 40  1  0
M  END
> <ID>
HT0574

> <Class>
1.0

> <Clusters>
23

> <Fold>
4

$$$$