
     RDKit          3D

 54 57  0  0  0  0  0  0  0  0999 V2000
    9.3054    0.3870    1.1503 O   0  0  0  0  0  0  0  0  0  0  0  0
    8.0922    0.4209    0.8131 C   0  0  0  0  0  0  0  0  0  0  0  0
    7.4660    1.7138    0.3774 C   0  0  0  0  0  0  0  0  0  0  0  0
    6.3739    1.4614   -0.6707 C   0  0  0  0  0  0  0  0  0  0  0  0
    5.4286    0.3629   -0.2454 C   0  0  0  0  0  0  0  0  0  0  0  0
    4.0829    0.3901   -0.6408 C   0  0  0  0  0  0  0  0  0  0  0  0
    3.2198   -0.6610   -0.3088 C   0  0  0  0  0  0  0  0  0  0  0  0
    1.8828   -0.5789   -0.7238 O   0  0  0  0  0  0  0  0  0  0  0  0
    0.8885   -1.5612   -0.4420 C   0  0  0  0  0  0  0  0  0  0  0  0
   -0.4589   -1.1326   -1.0292 C   0  0  0  0  0  0  0  0  0  0  0  0
   -0.9375    0.2468   -0.5364 C   0  0  0  0  0  0  0  0  0  0  0  0
   -1.1790    0.3320    0.9815 C   0  0  0  0  0  0  0  0  0  0  0  0
   -2.1516   -0.7027    1.4749 C   0  0  0  0  0  0  0  0  0  0  0  0
   -1.7906   -1.7773    2.2013 N   0  0  0  0  0  0  0  0  0  0  0  0
   -2.9153   -2.4469    2.4136 N   0  0  0  0  0  0  0  0  0  0  0  0
   -3.9326   -1.8157    1.8473 N   0  0  0  0  0  0  0  0  0  0  0  0
   -3.4832   -0.7181    1.2627 N   0  0  0  0  0  0  0  0  0  0  0  0
   -4.3161    0.2329    0.5180 C   0  0  0  0  0  0  0  0  0  0  0  0
   -4.8476   -0.4242   -0.7653 C   0  0  0  0  0  0  0  0  0  0  0  0
   -5.6350    0.5795   -1.6324 C   0  0  0  0  0  0  0  0  0  0  0  0
   -6.3149    1.6972   -0.8152 C   0  0  0  0  0  0  0  0  0  0  0  0
   -6.7037    1.2178    0.5875 C   0  0  0  0  0  0  0  0  0  0  0  0
   -5.4757    0.7574    1.4014 C   0  0  0  0  0  0  0  0  0  0  0  0
    3.7179   -1.7576    0.4202 C   0  0  0  0  0  0  0  0  0  0  0  0
    5.0588   -1.7934    0.8118 C   0  0  0  0  0  0  0  0  0  0  0  0
    5.9175   -0.7361    0.4872 C   0  0  0  0  0  0  0  0  0  0  0  0
    7.2863   -0.7576    0.9155 N   0  0  0  0  0  0  0  0  0  0  0  0
    7.0199    2.2109    1.2654 H   0  0  0  0  0  0  0  0  0  0  0  0
    8.2392    2.3877   -0.0512 H   0  0  0  0  0  0  0  0  0  0  0  0
    5.8185    2.4084   -0.8466 H   0  0  0  0  0  0  0  0  0  0  0  0
    6.8511    1.1625   -1.6292 H   0  0  0  0  0  0  0  0  0  0  0  0
    3.7034    1.2253   -1.2169 H   0  0  0  0  0  0  0  0  0  0  0  0
    0.7966   -1.7094    0.6547 H   0  0  0  0  0  0  0  0  0  0  0  0
    1.1845   -2.5286   -0.9024 H   0  0  0  0  0  0  0  0  0  0  0  0
   -0.3628   -1.0936   -2.1361 H   0  0  0  0  0  0  0  0  0  0  0  0
   -1.2231   -1.9050   -0.7964 H   0  0  0  0  0  0  0  0  0  0  0  0
   -1.8721    0.5032   -1.0762 H   0  0  0  0  0  0  0  0  0  0  0  0
   -0.1901    1.0187   -0.8204 H   0  0  0  0  0  0  0  0  0  0  0  0
   -1.5596    1.3425    1.2406 H   0  0  0  0  0  0  0  0  0  0  0  0
   -0.2124    0.2141    1.5153 H   0  0  0  0  0  0  0  0  0  0  0  0
   -3.7037    1.1113    0.2216 H   0  0  0  0  0  0  0  0  0  0  0  0
   -5.5123   -1.2735   -0.4915 H   0  0  0  0  0  0  0  0  0  0  0  0
   -4.0027   -0.8383   -1.3574 H   0  0  0  0  0  0  0  0  0  0  0  0
   -6.4060    0.0230   -2.2088 H   0  0  0  0  0  0  0  0  0  0  0  0
   -4.9467    1.0482   -2.3692 H   0  0  0  0  0  0  0  0  0  0  0  0
   -5.6224    2.5628   -0.7209 H   0  0  0  0  0  0  0  0  0  0  0  0
   -7.2213    2.0507   -1.3526 H   0  0  0  0  0  0  0  0  0  0  0  0
   -7.2229    2.0372    1.1300 H   0  0  0  0  0  0  0  0  0  0  0  0
   -7.4212    0.3733    0.4903 H   0  0  0  0  0  0  0  0  0  0  0  0
   -5.0982    1.6089    2.0090 H   0  0  0  0  0  0  0  0  0  0  0  0
   -5.8120   -0.0257    2.1148 H   0  0  0  0  0  0  0  0  0  0  0  0
    3.0780   -2.5868    0.6889 H   0  0  0  0  0  0  0  0  0  0  0  0
    5.4267   -2.6409    1.3764 H   0  0  0  0  0  0  0  0  0  0  0  0
    7.6929   -1.6233    1.3370 H   0  0  0  0  0  0  0  0  0  0  0  0
  1  2  2  0
  2  3  1  0
  3  4  1  0
  4  5  1  0
  5  6  2  0
  6  7  1  0
  7  8  1  0
  8  9  1  0
  9 10  1  0
 10 11  1  0
 11 12  1  0
 12 13  1  0
 13 14  2  0
 14 15  1  0
 15 16  2  0
 16 17  1  0
 17 13  1  0
 17 18  1  0
 18 19  1  0
 19 20  1  0
 20 21  1  0
 21 22  1  0
 22 23  1  0
 23 18  1  0
  7 24  2  0
 24 25  1  0
 25 26  2  0
 26  5  1  0
 26 27  1  0
 27  2  1  0
  3 28  1  0
  3 29  1  0
  4 30  1  0
  4 31  1  0
  6 32  1  0
  9 33  1  0
  9 34  1  0
 10 35  1  0
 10 36  1  0
 11 37  1  0
 11 38  1  0
 12 39  1  0
 12 40  1  0
 18 41  1  0
 19 42  1  0
 19 43  1  0
 20 44  1  0
 20 45  1  0
 21 46  1  0
 21 47  1  0
 22 48  1  0
 22 49  1  0
 23 50  1  0
 23 51  1  0
 24 52  1  0
 25 53  1  0
 27 54  1  0
M  END
> <ID>
HT0485

> <Class>
1.0

> <Clusters>
91

> <Fold>
4

$$$$