
     RDKit          3D

 41 44  0  0  0  0  0  0  0  0999 V2000
   -3.6718    4.5028   -1.3872 Cl  0  0  0  0  0  0  0  0  0  0  0  0
   -2.5772    3.1706   -1.0653 C   0  0  0  0  0  0  0  0  0  0  0  0
   -1.5127    2.9149   -1.9355 C   0  0  0  0  0  0  0  0  0  0  0  0
   -0.6394    1.8545   -1.6809 C   0  0  0  0  0  0  0  0  0  0  0  0
   -0.8239    1.0484   -0.5478 C   0  0  0  0  0  0  0  0  0  0  0  0
    0.0963   -0.0665   -0.2519 C   0  0  0  0  0  0  0  0  0  0  0  0
    1.3486    0.1677    0.2299 C   0  0  0  0  0  0  0  0  0  0  0  0
    2.2329   -0.9370    0.7819 C   0  0  0  0  0  0  0  0  0  0  0  0
    3.7238   -0.7162    0.4399 C   0  0  0  0  0  0  0  0  0  0  0  0
    4.1075    0.6992    0.2659 N   0  0  0  0  0  0  0  0  0  0  0  0
    3.2509    1.6131    1.0254 C   0  0  0  0  0  0  0  0  0  0  0  0
    1.8398    1.5886    0.4365 C   0  0  0  0  0  0  0  0  0  0  0  0
   -0.4592   -1.4293   -0.4094 C   0  0  0  0  0  0  0  0  0  0  0  0
    0.2070   -2.2859   -1.2346 N   0  0  0  0  0  0  0  0  0  0  0  0
   -0.2198   -3.5495   -1.4799 C   0  0  0  0  0  0  0  0  0  0  0  0
   -1.3900   -4.0126   -0.8911 C   0  0  0  0  0  0  0  0  0  0  0  0
   -2.1188   -3.1622   -0.0633 C   0  0  0  0  0  0  0  0  0  0  0  0
   -1.6809   -1.8509    0.1945 C   0  0  0  0  0  0  0  0  0  0  0  0
   -2.6051   -0.9980    1.0597 C   0  0  0  0  0  0  0  0  0  0  0  0
   -2.1138    0.3857    1.5026 C   0  0  0  0  0  0  0  0  0  0  0  0
   -1.9027    1.2882    0.3161 C   0  0  0  0  0  0  0  0  0  0  0  0
   -2.7742    2.3588    0.0574 C   0  0  0  0  0  0  0  0  0  0  0  0
   -1.3616    3.5365   -2.8087 H   0  0  0  0  0  0  0  0  0  0  0  0
    0.1798    1.6619   -2.3626 H   0  0  0  0  0  0  0  0  0  0  0  0
    2.1161   -0.9345    1.8873 H   0  0  0  0  0  0  0  0  0  0  0  0
    1.9492   -1.9516    0.4466 H   0  0  0  0  0  0  0  0  0  0  0  0
    3.9511   -1.2488   -0.5083 H   0  0  0  0  0  0  0  0  0  0  0  0
    4.3450   -1.1859    1.2356 H   0  0  0  0  0  0  0  0  0  0  0  0
    5.0920    0.8193    0.6011 H   0  0  0  0  0  0  0  0  0  0  0  0
    3.2321    1.3293    2.1023 H   0  0  0  0  0  0  0  0  0  0  0  0
    3.6549    2.6464    0.9530 H   0  0  0  0  0  0  0  0  0  0  0  0
    1.8673    2.1127   -0.5425 H   0  0  0  0  0  0  0  0  0  0  0  0
    1.1523    2.1358    1.1175 H   0  0  0  0  0  0  0  0  0  0  0  0
    0.3506   -4.1928   -2.1364 H   0  0  0  0  0  0  0  0  0  0  0  0
   -1.7381   -5.0191   -1.0844 H   0  0  0  0  0  0  0  0  0  0  0  0
   -3.0418   -3.5260    0.3725 H   0  0  0  0  0  0  0  0  0  0  0  0
   -3.5664   -0.8677    0.5153 H   0  0  0  0  0  0  0  0  0  0  0  0
   -2.8375   -1.5727    1.9831 H   0  0  0  0  0  0  0  0  0  0  0  0
   -2.8766    0.8230    2.1834 H   0  0  0  0  0  0  0  0  0  0  0  0
   -1.1770    0.2933    2.0943 H   0  0  0  0  0  0  0  0  0  0  0  0
   -3.6087    2.5565    0.7188 H   0  0  0  0  0  0  0  0  0  0  0  0
  1  2  1  0
  2  3  2  0
  3  4  1  0
  4  5  2  0
  5  6  1  0
  6  7  2  3
  7  8  1  0
  8  9  1  0
  9 10  1  0
 10 11  1  0
 11 12  1  0
 12  7  1  0
  6 13  1  0
 13 14  2  0
 14 15  1  0
 15 16  2  0
 16 17  1  0
 17 18  2  0
 18 13  1  0
 18 19  1  0
 19 20  1  0
 20 21  1  0
 21  5  1  0
 21 22  2  0
 22  2  1  0
  3 23  1  0
  4 24  1  0
  8 25  1  0
  8 26  1  0
  9 27  1  0
  9 28  1  0
 10 29  1  0
 11 30  1  0
 11 31  1  0
 12 32  1  0
 12 33  1  0
 15 34  1  0
 16 35  1  0
 17 36  1  0
 19 37  1  0
 19 38  1  0
 20 39  1  0
 20 40  1  0
 22 41  1  0
M  END
> <ID>
HT0613

> <Class>
1.0

> <Clusters>
26

> <Fold>
4

$$$$