
     RDKit          3D

 29 31  0  0  0  0  0  0  0  0999 V2000
    4.7796    1.6581    0.6876 O   0  0  0  0  0  0  0  0  0  0  0  0
    4.0347    0.7062    0.3323 C   0  0  0  0  0  0  0  0  0  0  0  0
    4.5499   -0.5394    0.0974 N   0  0  0  0  0  0  0  0  0  0  0  0
    2.6683    0.8844    0.1702 C   0  0  0  0  0  0  0  0  0  0  0  0
    1.9201    1.9870    0.3640 N   0  0  0  0  0  0  0  0  0  0  0  0
    1.8934   -0.1564   -0.2077 C   0  0  0  0  0  0  0  0  0  0  0  0
    0.6623    1.5481    0.0795 C   0  0  0  0  0  0  0  0  0  0  0  0
    2.3926   -1.3955   -0.4340 N   0  0  0  0  0  0  0  0  0  0  0  0
    0.6177    0.2396   -0.2862 N   0  0  0  0  0  0  0  0  0  0  0  0
    3.7388   -1.5819   -0.2804 C   0  0  0  0  0  0  0  0  0  0  0  0
   -0.5627   -0.5804   -0.5617 C   0  0  1  0  0  0  0  0  0  0  0  0
   -1.1272   -1.1579    0.7234 C   0  0  0  0  0  0  0  0  0  0  0  0
   -1.5567    0.1939   -1.1963 O   0  0  0  0  0  0  0  0  0  0  0  0
   -2.5944   -1.2168    0.4379 C   0  0  0  0  0  0  0  0  0  0  0  0
   -2.7958   -0.1039   -0.5863 C   0  0  1  0  0  0  0  0  0  0  0  0
   -3.3652    1.1657    0.0640 C   0  0  0  0  0  0  0  0  0  0  0  0
   -3.5765    2.1583   -0.9036 O   0  0  0  0  0  0  0  0  0  0  0  0
    5.5751   -0.7071    0.2098 H   0  0  0  0  0  0  0  0  0  0  0  0
   -0.2134    2.1796    0.1544 H   0  0  0  0  0  0  0  0  0  0  0  0
    4.1650   -2.5606   -0.4572 H   0  0  0  0  0  0  0  0  0  0  0  0
   -0.2840   -1.4122   -1.2472 H   0  0  0  0  0  0  0  0  0  0  0  0
   -0.7071   -2.1634    0.9440 H   0  0  0  0  0  0  0  0  0  0  0  0
   -0.9416   -0.4743    1.5822 H   0  0  0  0  0  0  0  0  0  0  0  0
   -2.8447   -2.1990   -0.0217 H   0  0  0  0  0  0  0  0  0  0  0  0
   -3.1978   -1.0854    1.3632 H   0  0  0  0  0  0  0  0  0  0  0  0
   -3.5082   -0.4496   -1.3675 H   0  0  0  0  0  0  0  0  0  0  0  0
   -4.3419    0.9298    0.5380 H   0  0  0  0  0  0  0  0  0  0  0  0
   -2.6805    1.5363    0.8617 H   0  0  0  0  0  0  0  0  0  0  0  0
   -2.6997    2.5970   -1.0599 H   0  0  0  0  0  0  0  0  0  0  0  0
  1  2  2  0
  2  3  1  0
  4  2  1  0
  5  4  1  0
  6  4  2  0
  7  5  2  0
  8  6  1  0
  6  9  1  0
  9  7  1  0
 10  8  2  0
 11  9  1  0
  3 10  1  0
 12 11  1  0
 11 13  1  0
 14 12  1  0
 13 15  1  0
 15 14  1  0
 15 16  1  0
 17 16  1  0
  3 18  1  0
  7 19  1  0
 10 20  1  0
 11 21  1  6
 12 22  1  0
 12 23  1  0
 14 24  1  0
 14 25  1  0
 15 26  1  6
 16 27  1  0
 16 28  1  0
 17 29  1  0
M  END
> <ID>
HT0652

> <Class>
1.0

> <Clusters>
58

> <Fold>
4

$$$$