
     RDKit          3D

 56 59  0  0  0  0  0  0  0  0999 V2000
   -0.4840    2.7571    0.3859 O   0  0  0  0  0  0  0  0  0  0  0  0
   -0.2490    1.6432   -0.0625 C   0  0  0  0  0  0  0  0  0  0  0  0
    0.9623    0.8795    0.4298 C   0  0  0  0  0  0  0  0  0  0  0  0
   -1.1689    1.0071   -1.0825 C   0  0  2  0  0  0  0  0  0  0  0  0
   -2.4737    1.7829   -1.2032 C   0  0  0  0  0  0  0  0  0  0  0  0
   -1.4274   -0.4752   -0.6548 C   0  0  1  0  0  0  0  0  0  0  0  0
   -0.5132    1.0392   -2.3310 O   0  0  0  0  0  0  0  0  0  0  0  0
   -2.5476    2.6979   -2.0130 O   0  0  0  0  0  0  0  0  0  0  0  0
   -3.6910    1.4299   -0.3865 C   0  0  0  0  0  0  0  0  0  0  0  0
   -0.0737   -1.2714   -0.4921 C   0  0  2  0  0  0  0  0  0  0  0  0
   -2.3176   -0.5847    0.6438 C   0  0  1  0  0  0  0  0  0  0  0  0
   -3.3447    0.5183    0.7692 C   0  0  0  0  0  0  0  0  0  0  0  0
   -4.3906    2.6840    0.0864 C   0  0  0  0  0  0  0  0  0  0  0  0
    1.2235   -0.3944   -0.4033 C   0  0  2  0  0  0  0  0  0  0  0  0
    0.0368   -2.2257   -1.5172 O   0  0  0  0  0  0  0  0  0  0  0  0
   -3.0303   -1.8848    0.8135 N   0  0  0  0  0  0  0  0  0  0  0  0
   -3.9591    0.6168    1.8231 O   0  0  0  0  0  0  0  0  0  0  0  0
   -5.5395    2.9591   -0.3522 O   0  0  0  0  0  0  0  0  0  0  0  0
   -3.7642    3.5679    1.0180 N   0  0  0  0  0  0  0  0  0  0  0  0
    2.4612   -1.2028    0.1489 C   0  0  1  0  0  0  0  0  0  0  0  0
   -3.7876   -2.3598   -0.3567 C   0  0  0  0  0  0  0  0  0  0  0  0
   -2.2368   -2.9671    1.4147 C   0  0  0  0  0  0  0  0  0  0  0  0
    3.1216   -2.0043   -0.9934 C   0  0  0  0  0  0  0  0  0  0  0  0
    3.5302   -0.3472    0.8487 C   0  0  0  0  0  0  0  0  0  0  0  0
    3.4344    1.0651    0.9329 C   0  0  0  0  0  0  0  0  0  0  0  0
    4.6307   -0.9887    1.4494 C   0  0  0  0  0  0  0  0  0  0  0  0
    2.2199    1.6980    0.3988 C   0  0  0  0  0  0  0  0  0  0  0  0
    4.4590    1.8056    1.5776 C   0  0  0  0  0  0  0  0  0  0  0  0
    5.6511   -0.2504    2.0447 C   0  0  0  0  0  0  0  0  0  0  0  0
    2.2606    2.8269   -0.1629 O   0  0  0  0  0  0  0  0  0  0  0  0
    4.3931    3.1885    1.7640 O   0  0  0  0  0  0  0  0  0  0  0  0
    5.5726    1.1383    2.0937 C   0  0  0  0  0  0  0  0  0  0  0  0
    0.7626    0.5897    1.4855 H   0  0  0  0  0  0  0  0  0  0  0  0
   -1.9981   -0.9210   -1.4946 H   0  0  0  0  0  0  0  0  0  0  0  0
   -1.0972    0.5921   -2.9991 H   0  0  0  0  0  0  0  0  0  0  0  0
   -4.3803    0.8745   -1.0583 H   0  0  0  0  0  0  0  0  0  0  0  0
   -0.1040   -1.8309    0.4583 H   0  0  0  0  0  0  0  0  0  0  0  0
   -1.6414   -0.4232    1.5135 H   0  0  0  0  0  0  0  0  0  0  0  0
    1.4841   -0.0555   -1.4317 H   0  0  0  0  0  0  0  0  0  0  0  0
    0.1051   -1.7315   -2.3754 H   0  0  0  0  0  0  0  0  0  0  0  0
   -4.2497    4.4403    1.3234 H   0  0  0  0  0  0  0  0  0  0  0  0
   -2.8291    3.3440    1.4227 H   0  0  0  0  0  0  0  0  0  0  0  0
    2.1009   -1.9295    0.9097 H   0  0  0  0  0  0  0  0  0  0  0  0
   -3.1202   -2.8443   -1.1022 H   0  0  0  0  0  0  0  0  0  0  0  0
   -4.3377   -1.5264   -0.8394 H   0  0  0  0  0  0  0  0  0  0  0  0
   -4.5425   -3.1062   -0.0303 H   0  0  0  0  0  0  0  0  0  0  0  0
   -1.6048   -3.4770    0.6565 H   0  0  0  0  0  0  0  0  0  0  0  0
   -2.9219   -3.7243    1.8515 H   0  0  0  0  0  0  0  0  0  0  0  0
   -1.6028   -2.5869    2.2438 H   0  0  0  0  0  0  0  0  0  0  0  0
    3.9532   -2.6351   -0.6196 H   0  0  0  0  0  0  0  0  0  0  0  0
    3.5247   -1.3161   -1.7672 H   0  0  0  0  0  0  0  0  0  0  0  0
    2.4031   -2.6971   -1.4698 H   0  0  0  0  0  0  0  0  0  0  0  0
    4.7055   -2.0682    1.4546 H   0  0  0  0  0  0  0  0  0  0  0  0
    6.5005   -0.7585    2.4828 H   0  0  0  0  0  0  0  0  0  0  0  0
    3.5701    3.7433    1.5770 H   0  0  0  0  0  0  0  0  0  0  0  0
    6.3621    1.6991    2.5781 H   0  0  0  0  0  0  0  0  0  0  0  0
  1  2  2  0
  2  3  1  0
  4  2  1  0
  5  4  1  0
  4  6  1  0
  4  7  1  6
  8  5  2  0
  5  9  1  0
  6 10  1  0
  6 11  1  0
 12  9  1  0
  9 13  1  0
 14 10  1  0
 10 15  1  0
 11 16  1  0
 11 12  1  0
 12 17  2  0
 13 18  2  0
 13 19  1  0
 14  3  1  0
 20 14  1  0
 16 21  1  0
 16 22  1  0
 20 23  1  0
 24 20  1  0
 24 25  2  0
 26 24  1  0
 27 25  1  0
 25 28  1  0
 29 26  2  0
  3 27  1  0
 27 30  2  0
 28 31  1  0
 28 32  2  0
 32 29  1  0
  3 33  1  0
  6 34  1  6
  7 35  1  0
  9 36  1  0
 10 37  1  1
 11 38  1  1
 14 39  1  6
 15 40  1  0
 19 41  1  0
 19 42  1  0
 20 43  1  1
 21 44  1  0
 21 45  1  0
 21 46  1  0
 22 47  1  0
 22 48  1  0
 22 49  1  0
 23 50  1  0
 23 51  1  0
 23 52  1  0
 26 53  1  0
 29 54  1  0
 31 55  1  0
 32 56  1  0
M  END
> <ID>
HT0720

> <Class>
1.0

> <Clusters>
225

> <Fold>
4

$$$$