
     RDKit          3D

 26 27  0  0  0  0  0  0  0  0999 V2000
   -4.3179   -0.2462    1.7280 O   0  0  0  0  0  0  0  0  0  0  0  0
   -3.0516   -0.8066    1.5881 C   0  0  0  0  0  0  0  0  0  0  0  0
   -2.6132   -1.5750    2.4864 O   0  0  0  0  0  0  0  0  0  0  0  0
   -2.1974   -0.4578    0.4318 C   0  0  0  0  0  0  0  0  0  0  0  0
   -0.8112   -0.3248    0.6338 C   0  0  0  0  0  0  0  0  0  0  0  0
    0.0367    0.0848   -0.4087 C   0  0  0  0  0  0  0  0  0  0  0  0
   -0.5139    0.3534   -1.6701 C   0  0  0  0  0  0  0  0  0  0  0  0
   -1.8836    0.2051   -1.8883 C   0  0  0  0  0  0  0  0  0  0  0  0
   -2.7299   -0.2177   -0.8582 C   0  0  0  0  0  0  0  0  0  0  0  0
   -4.0768   -0.4219   -1.1653 O   0  0  0  0  0  0  0  0  0  0  0  0
    1.4953    0.2238   -0.1768 C   0  0  0  0  0  0  0  0  0  0  0  0
    2.2005   -0.7952    0.4898 C   0  0  0  0  0  0  0  0  0  0  0  0
    3.5760   -0.6783    0.7095 C   0  0  0  0  0  0  0  0  0  0  0  0
    4.2617    0.4564    0.2705 C   0  0  0  0  0  0  0  0  0  0  0  0
    5.5956    0.5681    0.4858 F   0  0  0  0  0  0  0  0  0  0  0  0
    3.5719    1.4781   -0.3867 C   0  0  0  0  0  0  0  0  0  0  0  0
    2.1954    1.3682   -0.6110 C   0  0  0  0  0  0  0  0  0  0  0  0
    1.5450    2.3934   -1.2179 F   0  0  0  0  0  0  0  0  0  0  0  0
   -4.8990   -0.4668    2.5279 H   0  0  0  0  0  0  0  0  0  0  0  0
   -0.3934   -0.5020    1.6183 H   0  0  0  0  0  0  0  0  0  0  0  0
    0.1199    0.6520   -2.4959 H   0  0  0  0  0  0  0  0  0  0  0  0
   -2.2882    0.3934   -2.8749 H   0  0  0  0  0  0  0  0  0  0  0  0
   -4.7247   -0.8865   -0.5441 H   0  0  0  0  0  0  0  0  0  0  0  0
    1.6889   -1.6883    0.8271 H   0  0  0  0  0  0  0  0  0  0  0  0
    4.1100   -1.4703    1.2187 H   0  0  0  0  0  0  0  0  0  0  0  0
    4.1038    2.3610   -0.7177 H   0  0  0  0  0  0  0  0  0  0  0  0
  1  2  1  0
  2  3  2  0
  2  4  1  0
  4  5  2  0
  5  6  1  0
  6  7  2  0
  7  8  1  0
  8  9  2  0
  9  4  1  0
  9 10  1  0
  6 11  1  0
 11 12  2  0
 12 13  1  0
 13 14  2  0
 14 15  1  0
 14 16  1  0
 16 17  2  0
 17 11  1  0
 17 18  1  0
  1 19  1  0
  5 20  1  0
  7 21  1  0
  8 22  1  0
 10 23  1  0
 12 24  1  0
 13 25  1  0
 16 26  1  0
M  END
> <ID>
HT0662

> <Class>
1.0

> <Clusters>
159

> <Fold>
4

$$$$