
     RDKit          3D

 27 26  0  0  0  0  0  0  0  0999 V2000
    3.1149    1.8194    1.2421 N   0  0  0  0  0  0  0  0  0  0  0  0
    2.5999    1.0530    0.1117 C   0  0  0  0  0  0  0  0  0  0  0  0
    1.1298    0.6919    0.3447 C   0  0  0  0  0  0  0  0  0  0  0  0
    0.5615   -0.0904   -0.8539 C   0  0  0  0  0  0  0  0  0  0  0  0
   -0.9178   -0.5546   -0.7297 C   0  0  0  0  0  0  0  0  0  0  0  0
   -1.2921   -1.1700   -1.9374 O   0  0  0  0  0  0  0  0  0  0  0  0
   -2.0520    0.8654   -0.4846 P   0  0  0  0  0  0  0  0  0  0  0  0
   -3.4776    0.4059   -0.6946 O   0  0  0  0  0  0  0  0  0  0  0  0
   -1.6912    2.0807   -1.6068 O   0  0  0  0  0  0  0  0  0  0  0  0
   -1.9060    1.4945    1.0801 O   0  0  0  0  0  0  0  0  0  0  0  0
   -1.1503   -1.7637    0.6380 P   0  0  0  0  0  0  0  0  0  0  0  0
   -1.0308   -1.0899    1.9863 O   0  0  0  0  0  0  0  0  0  0  0  0
   -2.6888   -2.4583    0.5127 O   0  0  0  0  0  0  0  0  0  0  0  0
    0.0200   -2.9807    0.5183 O   0  0  0  0  0  0  0  0  0  0  0  0
    4.0916    2.1119    1.0093 H   0  0  0  0  0  0  0  0  0  0  0  0
    3.1861    1.1789    2.0662 H   0  0  0  0  0  0  0  0  0  0  0  0
    2.6871    1.6665   -0.8122 H   0  0  0  0  0  0  0  0  0  0  0  0
    3.2038    0.1270   -0.0209 H   0  0  0  0  0  0  0  0  0  0  0  0
    1.0625    0.0817    1.2676 H   0  0  0  0  0  0  0  0  0  0  0  0
    0.5624    1.6337    0.4902 H   0  0  0  0  0  0  0  0  0  0  0  0
    0.6540    0.5436   -1.7632 H   0  0  0  0  0  0  0  0  0  0  0  0
    1.2003   -0.9852   -1.0232 H   0  0  0  0  0  0  0  0  0  0  0  0
   -0.7182   -1.9706   -2.0646 H   0  0  0  0  0  0  0  0  0  0  0  0
   -1.8095    1.6530   -2.4923 H   0  0  0  0  0  0  0  0  0  0  0  0
   -2.4743    2.3055    1.0805 H   0  0  0  0  0  0  0  0  0  0  0  0
   -2.6484   -3.0191   -0.3025 H   0  0  0  0  0  0  0  0  0  0  0  0
   -0.2171   -3.6301    1.2274 H   0  0  0  0  0  0  0  0  0  0  0  0
  1  2  1  0
  2  3  1  0
  3  4  1  0
  4  5  1  0
  5  6  1  0
  5  7  1  0
  7  8  2  0
  7  9  1  0
  7 10  1  0
  5 11  1  0
 11 12  2  0
 11 13  1  0
 11 14  1  0
  1 15  1  0
  1 16  1  0
  2 17  1  0
  2 18  1  0
  3 19  1  0
  3 20  1  0
  4 21  1  0
  4 22  1  0
  6 23  1  0
  9 24  1  0
 10 25  1  0
 13 26  1  0
 14 27  1  0
M  END
> <ID>
HT0094

> <Class>
1.0

> <Clusters>
188

> <Fold>
4

$$$$