
     RDKit          3D

 38 38  0  0  0  0  0  0  0  0999 V2000
   -3.3259    1.3652   -0.8048 C   0  0  0  0  0  0  0  0  0  0  0  0
   -3.4277    0.0319   -0.0293 C   0  0  0  0  0  0  0  0  0  0  0  0
   -3.5117   -1.1506   -1.0197 C   0  0  0  0  0  0  0  0  0  0  0  0
   -4.7302    0.0470    0.7985 C   0  0  0  0  0  0  0  0  0  0  0  0
   -2.2913   -0.1512    0.9093 N   0  0  0  0  0  0  0  0  0  0  0  0
   -0.9517   -0.0353    0.3064 C   0  0  0  0  0  0  0  0  0  0  0  0
    0.1087   -0.5659    1.2822 C   0  0  2  0  0  0  0  0  0  0  0  0
    0.1504    0.2476    2.4262 O   0  0  0  0  0  0  0  0  0  0  0  0
    1.4718   -0.5987    0.6230 C   0  0  0  0  0  0  0  0  0  0  0  0
    2.1058   -1.8250    0.3705 C   0  0  0  0  0  0  0  0  0  0  0  0
    3.3665   -1.8582   -0.2287 C   0  0  0  0  0  0  0  0  0  0  0  0
    4.0127   -0.6680   -0.5879 C   0  0  0  0  0  0  0  0  0  0  0  0
    5.2780   -0.7123   -1.1733 O   0  0  0  0  0  0  0  0  0  0  0  0
    3.3824    0.5688   -0.3540 C   0  0  0  0  0  0  0  0  0  0  0  0
    4.0706    1.8646   -0.6974 C   0  0  0  0  0  0  0  0  0  0  0  0
    4.8466    2.2987    0.3855 O   0  0  0  0  0  0  0  0  0  0  0  0
    2.1220    0.5953    0.2654 C   0  0  0  0  0  0  0  0  0  0  0  0
   -2.4725    1.3535   -1.5152 H   0  0  0  0  0  0  0  0  0  0  0  0
   -3.1907    2.2141   -0.1008 H   0  0  0  0  0  0  0  0  0  0  0  0
   -4.2490    1.5436   -1.3977 H   0  0  0  0  0  0  0  0  0  0  0  0
   -3.4449   -2.1161   -0.4737 H   0  0  0  0  0  0  0  0  0  0  0  0
   -4.4729   -1.1283   -1.5777 H   0  0  0  0  0  0  0  0  0  0  0  0
   -2.7024   -1.1138   -1.7771 H   0  0  0  0  0  0  0  0  0  0  0  0
   -5.6217    0.1472    0.1418 H   0  0  0  0  0  0  0  0  0  0  0  0
   -4.7317    0.8991    1.5121 H   0  0  0  0  0  0  0  0  0  0  0  0
   -4.8276   -0.8940    1.3821 H   0  0  0  0  0  0  0  0  0  0  0  0
   -2.3564    0.5736    1.6637 H   0  0  0  0  0  0  0  0  0  0  0  0
   -0.8841   -0.6328   -0.6253 H   0  0  0  0  0  0  0  0  0  0  0  0
   -0.7317    1.0278    0.0630 H   0  0  0  0  0  0  0  0  0  0  0  0
   -0.1976   -1.5975    1.5771 H   0  0  0  0  0  0  0  0  0  0  0  0
    0.6534   -0.2578    3.1174 H   0  0  0  0  0  0  0  0  0  0  0  0
    1.6262   -2.7582    0.6384 H   0  0  0  0  0  0  0  0  0  0  0  0
    3.8439   -2.8126   -0.4110 H   0  0  0  0  0  0  0  0  0  0  0  0
    5.7513   -1.5907   -1.3499 H   0  0  0  0  0  0  0  0  0  0  0  0
    4.6994    1.7537   -1.6098 H   0  0  0  0  0  0  0  0  0  0  0  0
    3.3152    2.6457   -0.9286 H   0  0  0  0  0  0  0  0  0  0  0  0
    5.6693    1.7430    0.3864 H   0  0  0  0  0  0  0  0  0  0  0  0
    1.6473    1.5470    0.4726 H   0  0  0  0  0  0  0  0  0  0  0  0
  1  2  1  0
  2  3  1  0
  2  4  1  0
  2  5  1  0
  5  6  1  0
  6  7  1  0
  7  8  1  0
  7  9  1  0
  9 10  2  0
 10 11  1  0
 11 12  2  0
 12 13  1  0
 12 14  1  0
 14 15  1  0
 15 16  1  0
 14 17  2  0
 17  9  1  0
  1 18  1  0
  1 19  1  0
  1 20  1  0
  3 21  1  0
  3 22  1  0
  3 23  1  0
  4 24  1  0
  4 25  1  0
  4 26  1  0
  5 27  1  0
  6 28  1  0
  6 29  1  0
  7 30  1  1
  8 31  1  0
 10 32  1  0
 11 33  1  0
 13 34  1  0
 15 35  1  0
 15 36  1  0
 16 37  1  0
 17 38  1  0
M  END
> <ID>
HT0087

> <Class>
1.0

> <Clusters>
8

> <Fold>
4

$$$$