
     RDKit          3D

 46 49  0  0  0  0  0  0  0  0999 V2000
   -1.6487    1.1244   -1.7786 C   0  0  0  0  0  0  0  0  0  0  0  0
   -1.9462    0.7474   -0.2867 C   0  0  2  0  0  0  0  0  0  0  0  0
   -1.3415    1.8326    0.6445 C   0  0  0  0  0  0  0  0  0  0  0  0
    0.2034    1.8405    0.5678 C   0  0  0  0  0  0  0  0  0  0  0  0
    0.8318    0.4385    0.8227 C   0  0  1  0  0  0  0  0  0  0  0  0
    0.1783   -0.6840   -0.0442 C   0  0  1  0  0  0  0  0  0  0  0  0
    0.7263   -2.0957    0.3305 C   0  0  0  0  0  0  0  0  0  0  0  0
    2.0951   -2.0908    1.0459 C   0  0  0  0  0  0  0  0  0  0  0  0
    2.9399   -0.8997    0.6730 C   0  0  0  0  0  0  0  0  0  0  0  0
    4.3128   -1.0451    0.4240 C   0  0  0  0  0  0  0  0  0  0  0  0
    5.0976    0.0755    0.1273 C   0  0  0  0  0  0  0  0  0  0  0  0
    6.4620   -0.0581   -0.1197 O   0  0  0  0  0  0  0  0  0  0  0  0
    4.5102    1.3419    0.0825 C   0  0  0  0  0  0  0  0  0  0  0  0
    3.1422    1.4960    0.3229 C   0  0  0  0  0  0  0  0  0  0  0  0
    2.3390    0.3738    0.6141 C   0  0  0  0  0  0  0  0  0  0  0  0
   -1.3549   -0.6105    0.1237 C   0  0  2  0  0  0  0  0  0  0  0  0
   -2.2190   -1.6413   -0.5931 C   0  0  0  0  0  0  0  0  0  0  0  0
   -3.6187   -0.9989   -0.6499 C   0  0  0  0  0  0  0  0  0  0  0  0
   -3.4739    0.4644   -0.1383 C   0  0  2  0  0  0  0  0  0  0  0  0
   -4.2379    1.3571   -0.9156 O   0  0  0  0  0  0  0  0  0  0  0  0
   -3.9314    0.5479    1.2714 C   0  0  0  0  0  0  0  0  0  0  0  0
   -4.3059    0.6132    2.4158 C   0  0  0  0  0  0  0  0  0  0  0  0
   -2.0994    0.4002   -2.4880 H   0  0  0  0  0  0  0  0  0  0  0  0
   -0.5715    1.1787   -2.0175 H   0  0  0  0  0  0  0  0  0  0  0  0
   -2.0727    2.1248   -2.0096 H   0  0  0  0  0  0  0  0  0  0  0  0
   -1.7333    2.8349    0.3661 H   0  0  0  0  0  0  0  0  0  0  0  0
   -1.6229    1.6504    1.7036 H   0  0  0  0  0  0  0  0  0  0  0  0
    0.5235    2.2364   -0.4176 H   0  0  0  0  0  0  0  0  0  0  0  0
    0.5795    2.5486    1.3381 H   0  0  0  0  0  0  0  0  0  0  0  0
    0.6410    0.1975    1.8934 H   0  0  0  0  0  0  0  0  0  0  0  0
    0.4493   -0.5145   -1.1074 H   0  0  0  0  0  0  0  0  0  0  0  0
    0.0111   -2.6335    0.9908 H   0  0  0  0  0  0  0  0  0  0  0  0
    0.8104   -2.6994   -0.5999 H   0  0  0  0  0  0  0  0  0  0  0  0
    2.6271   -3.0444    0.8357 H   0  0  0  0  0  0  0  0  0  0  0  0
    1.9211   -2.0477    2.1431 H   0  0  0  0  0  0  0  0  0  0  0  0
    4.7742   -2.0238    0.4716 H   0  0  0  0  0  0  0  0  0  0  0  0
    6.9191   -0.9622   -0.0937 H   0  0  0  0  0  0  0  0  0  0  0  0
    5.1161    2.2106   -0.1421 H   0  0  0  0  0  0  0  0  0  0  0  0
    2.7301    2.4937    0.2791 H   0  0  0  0  0  0  0  0  0  0  0  0
   -1.5485   -0.7614    1.2141 H   0  0  0  0  0  0  0  0  0  0  0  0
   -2.2458   -2.6017   -0.0339 H   0  0  0  0  0  0  0  0  0  0  0  0
   -1.8321   -1.8300   -1.6184 H   0  0  0  0  0  0  0  0  0  0  0  0
   -4.3424   -1.5862   -0.0411 H   0  0  0  0  0  0  0  0  0  0  0  0
   -3.9817   -1.0104   -1.7013 H   0  0  0  0  0  0  0  0  0  0  0  0
   -5.1796    1.0396   -0.9022 H   0  0  0  0  0  0  0  0  0  0  0  0
   -4.6337    0.6705    3.4202 H   0  0  0  0  0  0  0  0  0  0  0  0
  2  1  1  6
  2  3  1  0
  3  4  1  0
  5  4  1  0
  5  6  1  0
  6  7  1  0
  7  8  1  0
  8  9  1  0
  9 10  2  0
 10 11  1  0
 11 12  1  0
 11 13  2  0
 13 14  1  0
 14 15  2  0
 15  5  1  0
 15  9  1  0
  6 16  1  0
 16  2  1  0
 16 17  1  0
 17 18  1  0
 18 19  1  0
 19  2  1  0
 19 20  1  0
 19 21  1  1
 21 22  3  0
  1 23  1  0
  1 24  1  0
  1 25  1  0
  3 26  1  0
  3 27  1  0
  4 28  1  0
  4 29  1  0
  5 30  1  1
  6 31  1  6
  7 32  1  0
  7 33  1  0
  8 34  1  0
  8 35  1  0
 10 36  1  0
 12 37  1  0
 13 38  1  0
 14 39  1  0
 16 40  1  1
 17 41  1  0
 17 42  1  0
 18 43  1  0
 18 44  1  0
 20 45  1  0
 22 46  1  0
M  END
> <ID>
HT0808

> <Class>
1.0

> <Clusters>
162

> <Fold>
4

$$$$