
     RDKit          3D

 46 49  0  0  0  0  0  0  0  0999 V2000
   -2.8893    0.9510   -1.7093 C   0  0  0  0  0  0  0  0  0  0  0  0
   -3.0806    0.6886   -0.1887 C   0  0  2  0  0  0  0  0  0  0  0  0
   -2.5796    1.8817    0.6494 C   0  0  0  0  0  0  0  0  0  0  0  0
   -1.0381    2.0079    0.5431 C   0  0  0  0  0  0  0  0  0  0  0  0
   -0.2770    0.6779    0.8487 C   0  0  1  0  0  0  0  0  0  0  0  0
   -0.8735   -0.5575    0.0977 C   0  0  1  0  0  0  0  0  0  0  0  0
   -0.1998   -1.8867    0.5513 C   0  0  0  0  0  0  0  0  0  0  0  0
    1.2098   -1.7216    1.1620 C   0  0  0  0  0  0  0  0  0  0  0  0
    1.9265   -0.4921    0.6615 C   0  0  0  0  0  0  0  0  0  0  0  0
    3.2921   -0.5422    0.3427 C   0  0  0  0  0  0  0  0  0  0  0  0
    3.9695    0.6190   -0.0698 C   0  0  0  0  0  0  0  0  0  0  0  0
    5.3314    0.6251   -0.4031 O   0  0  0  0  0  0  0  0  0  0  0  0
    6.3507   -0.7494   -0.3747 S   0  0  0  0  0  0  0  0  0  0  0  0
    6.4152   -1.3021    1.0213 O   0  0  0  0  0  0  0  0  0  0  0  0
    5.8220   -1.8016   -1.3087 O   0  0  0  0  0  0  0  0  0  0  0  0
    7.8964   -0.3021   -0.8589 O   0  0  0  0  0  0  0  0  0  0  0  0
    3.2672    1.8247   -0.1499 C   0  0  0  0  0  0  0  0  0  0  0  0
    1.9069    1.8828    0.1616 C   0  0  0  0  0  0  0  0  0  0  0  0
    1.2175    0.7209    0.5606 C   0  0  0  0  0  0  0  0  0  0  0  0
   -2.3930   -0.5754    0.3445 C   0  0  2  0  0  0  0  0  0  0  0  0
   -3.2527   -1.7398   -0.1519 C   0  0  0  0  0  0  0  0  0  0  0  0
   -4.6872   -1.1961   -0.0205 C   0  0  0  0  0  0  0  0  0  0  0  0
   -4.5064    0.2922    0.0047 C   0  0  0  0  0  0  0  0  0  0  0  0
   -5.4298    1.0844    0.1119 O   0  0  0  0  0  0  0  0  0  0  0  0
   -3.2366    0.0904   -2.3195 H   0  0  0  0  0  0  0  0  0  0  0  0
   -1.8380    1.1492   -1.9892 H   0  0  0  0  0  0  0  0  0  0  0  0
   -3.4834    1.8391   -2.0141 H   0  0  0  0  0  0  0  0  0  0  0  0
   -2.8624    1.7478    1.7172 H   0  0  0  0  0  0  0  0  0  0  0  0
   -3.0534    2.8234    0.2963 H   0  0  0  0  0  0  0  0  0  0  0  0
   -0.7066    2.7865    1.2640 H   0  0  0  0  0  0  0  0  0  0  0  0
   -0.7769    2.3741   -0.4710 H   0  0  0  0  0  0  0  0  0  0  0  0
   -0.3897    0.4981    1.9422 H   0  0  0  0  0  0  0  0  0  0  0  0
   -0.6697   -0.4505   -0.9890 H   0  0  0  0  0  0  0  0  0  0  0  0
   -0.8279   -2.4074    1.3070 H   0  0  0  0  0  0  0  0  0  0  0  0
   -0.1343   -2.5657   -0.3272 H   0  0  0  0  0  0  0  0  0  0  0  0
    1.8052   -2.6411    0.9715 H   0  0  0  0  0  0  0  0  0  0  0  0
    1.1078   -1.6219    2.2648 H   0  0  0  0  0  0  0  0  0  0  0  0
    3.8153   -1.4831    0.4318 H   0  0  0  0  0  0  0  0  0  0  0  0
    7.7648    0.1697   -1.7199 H   0  0  0  0  0  0  0  0  0  0  0  0
    3.7810    2.7264   -0.4588 H   0  0  0  0  0  0  0  0  0  0  0  0
    1.4119    2.8402    0.0883 H   0  0  0  0  0  0  0  0  0  0  0  0
   -2.5145   -0.5982    1.4575 H   0  0  0  0  0  0  0  0  0  0  0  0
   -3.0151   -1.9791   -1.2110 H   0  0  0  0  0  0  0  0  0  0  0  0
   -3.1142   -2.6495    0.4710 H   0  0  0  0  0  0  0  0  0  0  0  0
   -5.3142   -1.5051   -0.8837 H   0  0  0  0  0  0  0  0  0  0  0  0
   -5.1473   -1.5330    0.9334 H   0  0  0  0  0  0  0  0  0  0  0  0
  2  1  1  6
  2  3  1  0
  3  4  1  0
  5  4  1  0
  5  6  1  0
  6  7  1  0
  7  8  1  0
  8  9  1  0
  9 10  2  0
 10 11  1  0
 11 12  1  0
 12 13  1  0
 13 14  2  0
 13 15  2  0
 13 16  1  0
 11 17  2  0
 17 18  1  0
 18 19  2  0
 19  5  1  0
 19  9  1  0
  6 20  1  0
 20  2  1  0
 20 21  1  0
 21 22  1  0
 22 23  1  0
 23  2  1  0
 23 24  2  0
  1 25  1  0
  1 26  1  0
  1 27  1  0
  3 28  1  0
  3 29  1  0
  4 30  1  0
  4 31  1  0
  5 32  1  1
  6 33  1  6
  7 34  1  0
  7 35  1  0
  8 36  1  0
  8 37  1  0
 10 38  1  0
 16 39  1  0
 17 40  1  0
 18 41  1  0
 20 42  1  1
 21 43  1  0
 21 44  1  0
 22 45  1  0
 22 46  1  0
M  END
> <ID>
HT0799

> <Class>
1.0

> <Clusters>
162

> <Fold>
4

$$$$