
     RDKit          3D

 49 50  0  0  0  0  0  0  0  0999 V2000
   -1.0265   -1.4413   -0.4084 C   0  0  0  0  0  0  0  0  0  0  0  0
   -1.1146    0.0903   -0.5330 C   0  0  2  0  0  0  0  0  0  0  0  0
    0.2262    0.7215   -0.4625 N   0  0  0  0  0  0  0  0  0  0  0  0
    1.0486    0.4120    0.7323 C   0  0  1  0  0  0  0  0  0  0  0  0
    2.5432    0.5208    0.3742 C   0  0  0  0  0  0  0  0  0  0  0  0
    2.9691   -0.5387   -0.6587 C   0  0  0  0  0  0  0  0  0  0  0  0
    4.4357   -0.4044   -0.9853 C   0  0  0  0  0  0  0  0  0  0  0  0
    4.8488    0.0909   -2.2363 C   0  0  0  0  0  0  0  0  0  0  0  0
    6.2108    0.2153   -2.5298 C   0  0  0  0  0  0  0  0  0  0  0  0
    7.1684   -0.1624   -1.5825 C   0  0  0  0  0  0  0  0  0  0  0  0
    6.7657   -0.6628   -0.3393 C   0  0  0  0  0  0  0  0  0  0  0  0
    5.4058   -0.7850   -0.0397 C   0  0  0  0  0  0  0  0  0  0  0  0
    0.7366    1.3379    1.8854 C   0  0  0  0  0  0  0  0  0  0  0  0
    0.9822    2.5715    1.7961 O   0  0  0  0  0  0  0  0  0  0  0  0
    0.1398    0.8469    3.0441 O   0  0  0  0  0  0  0  0  0  0  0  0
   -2.1127    0.7077    0.4314 C   0  0  0  0  0  0  0  0  0  0  0  0
   -1.8701    1.8301    0.9560 O   0  0  0  0  0  0  0  0  0  0  0  0
   -3.3711    0.0753    0.7220 N   0  0  0  0  0  0  0  0  0  0  0  0
   -3.9189    0.0678    2.0662 C   0  0  0  0  0  0  0  0  0  0  0  0
   -5.2600   -0.6433    1.9664 C   0  0  0  0  0  0  0  0  0  0  0  0
   -5.6351   -0.6333    0.4843 C   0  0  0  0  0  0  0  0  0  0  0  0
   -4.3291   -0.3776   -0.2822 C   0  0  1  0  0  0  0  0  0  0  0  0
   -4.5252    0.6608   -1.3536 C   0  0  0  0  0  0  0  0  0  0  0  0
   -4.3700    0.3521   -2.5665 O   0  0  0  0  0  0  0  0  0  0  0  0
   -4.8808    1.9612   -1.0069 O   0  0  0  0  0  0  0  0  0  0  0  0
   -1.0672   -1.7566    0.6550 H   0  0  0  0  0  0  0  0  0  0  0  0
   -1.8595   -1.9341   -0.9498 H   0  0  0  0  0  0  0  0  0  0  0  0
   -0.0807   -1.8167   -0.8594 H   0  0  0  0  0  0  0  0  0  0  0  0
   -1.5097    0.2950   -1.5532 H   0  0  0  0  0  0  0  0  0  0  0  0
    0.1598    1.7551   -0.6255 H   0  0  0  0  0  0  0  0  0  0  0  0
    0.8817   -0.6295    1.0746 H   0  0  0  0  0  0  0  0  0  0  0  0
    2.7640    1.5341   -0.0301 H   0  0  0  0  0  0  0  0  0  0  0  0
    3.1460    0.3859    1.3004 H   0  0  0  0  0  0  0  0  0  0  0  0
    2.3585   -0.4244   -1.5834 H   0  0  0  0  0  0  0  0  0  0  0  0
    2.7771   -1.5617   -0.2565 H   0  0  0  0  0  0  0  0  0  0  0  0
    4.1170    0.3848   -2.9813 H   0  0  0  0  0  0  0  0  0  0  0  0
    6.5222    0.5990   -3.4960 H   0  0  0  0  0  0  0  0  0  0  0  0
    8.2213   -0.0758   -1.8140 H   0  0  0  0  0  0  0  0  0  0  0  0
    7.5062   -0.9622    0.3893 H   0  0  0  0  0  0  0  0  0  0  0  0
    5.1067   -1.1823    0.9261 H   0  0  0  0  0  0  0  0  0  0  0  0
   -0.1380   -0.1242    3.1246 H   0  0  0  0  0  0  0  0  0  0  0  0
   -3.2388   -0.4784    2.7561 H   0  0  0  0  0  0  0  0  0  0  0  0
   -4.0633    1.1132    2.4183 H   0  0  0  0  0  0  0  0  0  0  0  0
   -6.0309   -0.1317    2.5850 H   0  0  0  0  0  0  0  0  0  0  0  0
   -5.1509   -1.6940    2.3137 H   0  0  0  0  0  0  0  0  0  0  0  0
   -6.3885    0.1659    0.3065 H   0  0  0  0  0  0  0  0  0  0  0  0
   -6.0817   -1.6073    0.1872 H   0  0  0  0  0  0  0  0  0  0  0  0
   -3.9815   -1.3300   -0.7310 H   0  0  0  0  0  0  0  0  0  0  0  0
   -5.0368    2.6627   -1.7217 H   0  0  0  0  0  0  0  0  0  0  0  0
  2  1  1  0
  2  3  1  0
  3  4  1  0
  4  5  1  0
  5  6  1  0
  6  7  1  0
  7  8  2  0
  8  9  1  0
  9 10  2  0
 10 11  1  0
 11 12  2  0
 12  7  1  0
  4 13  1  0
 13 14  2  0
 13 15  1  0
  2 16  1  0
 16 17  2  0
 16 18  1  0
 18 19  1  0
 19 20  1  0
 20 21  1  0
 21 22  1  0
 22 18  1  0
 22 23  1  0
 23 24  2  0
 23 25  1  0
  1 26  1  0
  1 27  1  0
  1 28  1  0
  2 29  1  6
  3 30  1  0
  4 31  1  1
  5 32  1  0
  5 33  1  0
  6 34  1  0
  6 35  1  0
  8 36  1  0
  9 37  1  0
 10 38  1  0
 11 39  1  0
 12 40  1  0
 15 41  1  0
 19 42  1  0
 19 43  1  0
 20 44  1  0
 20 45  1  0
 21 46  1  0
 21 47  1  0
 22 48  1  6
 25 49  1  0
M  END
> <ID>
HT0754

> <Class>
1.0

> <Clusters>
94

> <Fold>
4

$$$$