
     RDKit          3D

 26 27  0  0  0  0  0  0  0  0999 V2000
   -4.5557    0.4456    1.5399 N   0  0  0  0  0  0  0  0  0  0  0  0
   -3.2954    0.2291    0.9032 C   0  0  0  0  0  0  0  0  0  0  0  0
   -2.1498    0.3642    1.6171 N   0  0  0  0  0  0  0  0  0  0  0  0
   -0.9303    0.1687    1.0510 C   0  0  0  0  0  0  0  0  0  0  0  0
    0.0995    0.2936    1.7673 O   0  0  0  0  0  0  0  0  0  0  0  0
   -0.8292   -0.1651   -0.2792 N   0  0  0  0  0  0  0  0  0  0  0  0
   -1.9699   -0.3260   -1.0175 C   0  0  0  0  0  0  0  0  0  0  0  0
   -3.2242   -0.1269   -0.4438 C   0  0  0  0  0  0  0  0  0  0  0  0
   -4.3469   -0.2825   -1.1896 F   0  0  0  0  0  0  0  0  0  0  0  0
    0.4778   -0.4057   -0.9248 C   0  0  2  0  0  0  0  0  0  0  0  0
    1.0278   -1.7679   -0.5371 C   0  0  0  0  0  0  0  0  0  0  0  0
    2.8086   -1.6725   -0.7643 S   0  0  0  0  0  0  0  0  0  0  0  0
    2.6808    0.1380   -0.9403 C   0  0  2  0  0  0  0  0  0  0  0  0
    3.7428    0.8141   -0.0791 C   0  0  0  0  0  0  0  0  0  0  0  0
    3.6801    2.2022   -0.2547 O   0  0  0  0  0  0  0  0  0  0  0  0
    1.4025    0.5853   -0.5517 O   0  0  0  0  0  0  0  0  0  0  0  0
   -4.5943    0.7089    2.5496 H   0  0  0  0  0  0  0  0  0  0  0  0
   -5.4528    0.3465    1.0145 H   0  0  0  0  0  0  0  0  0  0  0  0
   -1.9175   -0.6113   -2.0617 H   0  0  0  0  0  0  0  0  0  0  0  0
    0.3671   -0.3705   -2.0355 H   0  0  0  0  0  0  0  0  0  0  0  0
    0.8223   -2.0001    0.5291 H   0  0  0  0  0  0  0  0  0  0  0  0
    0.5979   -2.5655   -1.1791 H   0  0  0  0  0  0  0  0  0  0  0  0
    2.8561    0.4041   -2.0065 H   0  0  0  0  0  0  0  0  0  0  0  0
    3.5689    0.5618    0.9914 H   0  0  0  0  0  0  0  0  0  0  0  0
    4.7499    0.4467   -0.3787 H   0  0  0  0  0  0  0  0  0  0  0  0
    4.3839    2.5854    0.3308 H   0  0  0  0  0  0  0  0  0  0  0  0
  1  2  1  0
  2  3  2  0
  3  4  1  0
  4  5  2  0
  4  6  1  0
  6  7  1  0
  7  8  2  0
  8  2  1  0
  8  9  1  0
 10  6  1  0
 10 11  1  0
 11 12  1  0
 12 13  1  0
 13 14  1  0
 14 15  1  0
 13 16  1  0
 16 10  1  0
  1 17  1  0
  1 18  1  0
  7 19  1  0
 10 20  1  6
 11 21  1  0
 11 22  1  0
 13 23  1  6
 14 24  1  0
 14 25  1  0
 15 26  1  0
M  END
> <ID>
HT0752

> <Class>
1.0

> <Clusters>
144

> <Fold>
4

$$$$