
     RDKit          3D

 40 42  0  0  0  0  0  0  0  0999 V2000
   -1.5660    2.4028   -1.6591 C   0  0  0  0  0  0  0  0  0  0  0  0
   -1.8160    0.9322   -1.9821 C   0  0  0  0  0  0  0  0  0  0  0  0
   -2.2071    0.1923   -0.7688 N   0  0  0  0  0  0  0  0  0  0  0  0
   -3.5312   -0.0797   -0.5606 C   0  0  0  0  0  0  0  0  0  0  0  0
   -3.9646   -0.7672    0.5832 C   0  0  0  0  0  0  0  0  0  0  0  0
   -5.4134   -1.0255    0.7676 C   0  0  0  0  0  0  0  0  0  0  0  0
   -6.1392   -1.2542   -0.2362 O   0  0  0  0  0  0  0  0  0  0  0  0
   -6.0058   -0.9904    2.0287 O   0  0  0  0  0  0  0  0  0  0  0  0
   -3.0061   -1.2108    1.5115 C   0  0  0  0  0  0  0  0  0  0  0  0
   -3.3596   -1.8850    2.5184 O   0  0  0  0  0  0  0  0  0  0  0  0
   -1.6470   -0.9253    1.2977 C   0  0  0  0  0  0  0  0  0  0  0  0
   -0.6523   -1.3304    2.2029 C   0  0  0  0  0  0  0  0  0  0  0  0
    0.6885   -1.0326    1.9571 C   0  0  0  0  0  0  0  0  0  0  0  0
    1.6214   -1.4019    2.8692 F   0  0  0  0  0  0  0  0  0  0  0  0
    1.0393   -0.3276    0.7921 C   0  0  0  0  0  0  0  0  0  0  0  0
    0.0563    0.0546   -0.0682 N   0  0  0  0  0  0  0  0  0  0  0  0
   -1.2631   -0.2145    0.1405 C   0  0  0  0  0  0  0  0  0  0  0  0
    2.4120   -0.0047    0.4841 N   0  0  0  0  0  0  0  0  0  0  0  0
    3.4994   -0.9482    0.7848 C   0  0  0  0  0  0  0  0  0  0  0  0
    4.6944   -0.7128   -0.1461 C   0  0  0  0  0  0  0  0  0  0  0  0
    4.2065   -0.4205   -1.4979 N   0  0  0  0  0  0  0  0  0  0  0  0
    3.4949    0.8712   -1.5635 C   0  0  0  0  0  0  0  0  0  0  0  0
    2.7373    1.2162   -0.2649 C   0  0  0  0  0  0  0  0  0  0  0  0
   -1.2945    2.9475   -2.5877 H   0  0  0  0  0  0  0  0  0  0  0  0
   -2.4842    2.8584   -1.2316 H   0  0  0  0  0  0  0  0  0  0  0  0
   -0.7354    2.5079   -0.9306 H   0  0  0  0  0  0  0  0  0  0  0  0
   -2.6109    0.8722   -2.7585 H   0  0  0  0  0  0  0  0  0  0  0  0
   -0.9050    0.4824   -2.4341 H   0  0  0  0  0  0  0  0  0  0  0  0
   -4.2698    0.2609   -1.2782 H   0  0  0  0  0  0  0  0  0  0  0  0
   -5.5005   -0.6881    2.8521 H   0  0  0  0  0  0  0  0  0  0  0  0
   -0.9092   -1.8705    3.1061 H   0  0  0  0  0  0  0  0  0  0  0  0
    3.1383   -1.9892    0.6317 H   0  0  0  0  0  0  0  0  0  0  0  0
    3.8244   -0.8299    1.8400 H   0  0  0  0  0  0  0  0  0  0  0  0
    5.3191    0.1287    0.2310 H   0  0  0  0  0  0  0  0  0  0  0  0
    5.3284   -1.6259   -0.1665 H   0  0  0  0  0  0  0  0  0  0  0  0
    5.0316   -0.3743   -2.1406 H   0  0  0  0  0  0  0  0  0  0  0  0
    2.7645    0.8194   -2.3990 H   0  0  0  0  0  0  0  0  0  0  0  0
    4.2096    1.6927   -1.7958 H   0  0  0  0  0  0  0  0  0  0  0  0
    1.8305    1.8135   -0.5018 H   0  0  0  0  0  0  0  0  0  0  0  0
    3.3846    1.8565    0.3732 H   0  0  0  0  0  0  0  0  0  0  0  0
  1  2  1  0
  2  3  1  0
  3  4  1  0
  4  5  2  0
  5  6  1  0
  6  7  2  0
  6  8  1  0
  5  9  1  0
  9 10  2  0
  9 11  1  0
 11 12  2  0
 12 13  1  0
 13 14  1  0
 13 15  2  0
 15 16  1  0
 16 17  2  0
 17  3  1  0
 17 11  1  0
 15 18  1  0
 18 19  1  0
 19 20  1  0
 20 21  1  0
 21 22  1  0
 22 23  1  0
 23 18  1  0
  1 24  1  0
  1 25  1  0
  1 26  1  0
  2 27  1  0
  2 28  1  0
  4 29  1  0
  8 30  1  0
 12 31  1  0
 19 32  1  0
 19 33  1  0
 20 34  1  0
 20 35  1  0
 21 36  1  0
 22 37  1  0
 22 38  1  0
 23 39  1  0
 23 40  1  0
M  END
> <ID>
HT0759

> <Class>
1.0

> <Clusters>
184

> <Fold>
4

$$$$