
     RDKit          3D

 19 18  0  0  0  0  0  0  0  0999 V2000
   -0.3851    1.7348    0.9322 C   0  0  0  0  0  0  0  0  0  0  0  0
   -0.1394    0.7080   -0.1756 C   0  0  0  0  0  0  0  0  0  0  0  0
   -0.0766    1.3866   -1.4036 O   0  0  0  0  0  0  0  0  0  0  0  0
   -1.5214   -0.4976   -0.2052 P   0  0  0  0  0  0  0  0  0  0  0  0
   -2.8217    0.2399   -0.4322 O   0  0  0  0  0  0  0  0  0  0  0  0
   -1.6065   -1.3225    1.2709 O   0  0  0  0  0  0  0  0  0  0  0  0
   -1.2925   -1.6065   -1.4639 O   0  0  0  0  0  0  0  0  0  0  0  0
    1.4506   -0.1513    0.1379 P   0  0  0  0  0  0  0  0  0  0  0  0
    1.4360   -0.7906    1.5091 O   0  0  0  0  0  0  0  0  0  0  0  0
    1.7170   -1.3377   -1.0413 O   0  0  0  0  0  0  0  0  0  0  0  0
    2.7070    0.9801    0.0695 O   0  0  0  0  0  0  0  0  0  0  0  0
   -0.4548    1.2380    1.9237 H   0  0  0  0  0  0  0  0  0  0  0  0
    0.4431    2.4747    0.9628 H   0  0  0  0  0  0  0  0  0  0  0  0
   -1.3313    2.2861    0.7447 H   0  0  0  0  0  0  0  0  0  0  0  0
    0.0917    0.7108   -2.1109 H   0  0  0  0  0  0  0  0  0  0  0  0
   -0.9891   -2.0901    1.1702 H   0  0  0  0  0  0  0  0  0  0  0  0
   -2.0334   -2.2564   -1.3665 H   0  0  0  0  0  0  0  0  0  0  0  0
    1.2724   -2.1519   -0.6946 H   0  0  0  0  0  0  0  0  0  0  0  0
    3.5343    0.4456    0.1728 H   0  0  0  0  0  0  0  0  0  0  0  0
  1  2  1  0
  2  3  1  0
  2  4  1  0
  4  5  2  0
  4  6  1  0
  4  7  1  0
  2  8  1  0
  8  9  2  0
  8 10  1  0
  8 11  1  0
  1 12  1  0
  1 13  1  0
  1 14  1  0
  3 15  1  0
  6 16  1  0
  7 17  1  0
 10 18  1  0
 11 19  1  0
M  END
> <ID>
HT0825

> <Class>
1.0

> <Clusters>
188

> <Fold>
4

$$$$