
     RDKit          3D

 55 56  0  0  0  0  0  0  0  0999 V2000
   -1.5873    4.3957    0.0465 C   0  0  0  0  0  0  0  0  0  0  0  0
   -1.7779    3.6026   -1.2372 C   0  0  0  0  0  0  0  0  0  0  0  0
   -1.3200    2.2694   -1.0424 O   0  0  0  0  0  0  0  0  0  0  0  0
   -1.3485    1.3040   -2.0560 C   0  0  0  0  0  0  0  0  0  0  0  0
   -1.8004    1.5910   -3.1988 O   0  0  0  0  0  0  0  0  0  0  0  0
   -0.8953   -0.1073   -1.7725 C   0  0  2  0  0  0  0  0  0  0  0  0
   -2.0506   -0.9623   -1.2145 C   0  0  0  0  0  0  0  0  0  0  0  0
   -2.5578   -0.5203    0.1699 C   0  0  0  0  0  0  0  0  0  0  0  0
   -3.7406   -1.3518    0.5930 C   0  0  0  0  0  0  0  0  0  0  0  0
   -3.6150   -2.3052    1.6172 C   0  0  0  0  0  0  0  0  0  0  0  0
   -4.7133   -3.0825    1.9940 C   0  0  0  0  0  0  0  0  0  0  0  0
   -5.9437   -2.9150    1.3524 C   0  0  0  0  0  0  0  0  0  0  0  0
   -6.0780   -1.9660    0.3373 C   0  0  0  0  0  0  0  0  0  0  0  0
   -4.9841   -1.1846   -0.0410 C   0  0  0  0  0  0  0  0  0  0  0  0
    0.2691   -0.1491   -0.8644 N   0  0  0  0  0  0  0  0  0  0  0  0
    1.5528    0.1651   -1.5278 C   0  0  1  0  0  0  0  0  0  0  0  0
    2.0018    1.6119   -1.2668 C   0  0  0  0  0  0  0  0  0  0  0  0
    2.6009   -0.8139   -1.0647 C   0  0  0  0  0  0  0  0  0  0  0  0
    2.9153   -1.7764   -1.8149 O   0  0  0  0  0  0  0  0  0  0  0  0
    3.2447   -0.6799    0.2136 N   0  0  0  0  0  0  0  0  0  0  0  0
    2.5406   -0.8855    1.4709 C   0  0  0  0  0  0  0  0  0  0  0  0
    3.5113   -0.4379    2.5561 C   0  0  0  0  0  0  0  0  0  0  0  0
    4.8838   -0.4789    1.8945 C   0  0  0  0  0  0  0  0  0  0  0  0
    4.6065   -0.1871    0.4179 C   0  0  1  0  0  0  0  0  0  0  0  0
    5.6138   -0.7857   -0.5494 C   0  0  0  0  0  0  0  0  0  0  0  0
    5.4342   -0.6325   -1.7871 O   0  0  0  0  0  0  0  0  0  0  0  0
    6.7848   -1.4251   -0.1295 O   0  0  0  0  0  0  0  0  0  0  0  0
   -2.1666    3.9292    0.8729 H   0  0  0  0  0  0  0  0  0  0  0  0
   -1.9434    5.4385   -0.1008 H   0  0  0  0  0  0  0  0  0  0  0  0
   -0.5113    4.4156    0.3221 H   0  0  0  0  0  0  0  0  0  0  0  0
   -1.1996    4.0835   -2.0567 H   0  0  0  0  0  0  0  0  0  0  0  0
   -2.8567    3.5925   -1.5082 H   0  0  0  0  0  0  0  0  0  0  0  0
   -0.6261   -0.5835   -2.7429 H   0  0  0  0  0  0  0  0  0  0  0  0
   -1.7063   -2.0184   -1.1456 H   0  0  0  0  0  0  0  0  0  0  0  0
   -2.8894   -0.9393   -1.9449 H   0  0  0  0  0  0  0  0  0  0  0  0
   -2.8609    0.5471    0.1567 H   0  0  0  0  0  0  0  0  0  0  0  0
   -1.7383   -0.6276    0.9109 H   0  0  0  0  0  0  0  0  0  0  0  0
   -2.6672   -2.4540    2.1178 H   0  0  0  0  0  0  0  0  0  0  0  0
   -4.6107   -3.8187    2.7799 H   0  0  0  0  0  0  0  0  0  0  0  0
   -6.7916   -3.5200    1.6425 H   0  0  0  0  0  0  0  0  0  0  0  0
   -7.0319   -1.8391   -0.1603 H   0  0  0  0  0  0  0  0  0  0  0  0
   -5.1022   -0.4515   -0.8291 H   0  0  0  0  0  0  0  0  0  0  0  0
    0.1105    0.4717   -0.0371 H   0  0  0  0  0  0  0  0  0  0  0  0
    1.4697    0.0526   -2.6333 H   0  0  0  0  0  0  0  0  0  0  0  0
    2.9918    1.7941   -1.7384 H   0  0  0  0  0  0  0  0  0  0  0  0
    1.2768    2.3260   -1.7110 H   0  0  0  0  0  0  0  0  0  0  0  0
    2.0827    1.8149   -0.1767 H   0  0  0  0  0  0  0  0  0  0  0  0
    1.6187   -0.2743    1.5186 H   0  0  0  0  0  0  0  0  0  0  0  0
    2.2905   -1.9627    1.5857 H   0  0  0  0  0  0  0  0  0  0  0  0
    3.4622   -1.1030    3.4461 H   0  0  0  0  0  0  0  0  0  0  0  0
    3.2812    0.6076    2.8630 H   0  0  0  0  0  0  0  0  0  0  0  0
    5.2715   -1.5133    2.0299 H   0  0  0  0  0  0  0  0  0  0  0  0
    5.5881    0.2579    2.3432 H   0  0  0  0  0  0  0  0  0  0  0  0
    4.6033    0.9145    0.2670 H   0  0  0  0  0  0  0  0  0  0  0  0
    7.1081   -1.4330    0.8324 H   0  0  0  0  0  0  0  0  0  0  0  0
  1  2  1  0
  2  3  1  0
  3  4  1  0
  4  5  2  0
  6  4  1  0
  6  7  1  0
  7  8  1  0
  8  9  1  0
  9 10  2  0
 10 11  1  0
 11 12  2  0
 12 13  1  0
 13 14  2  0
 14  9  1  0
  6 15  1  0
 15 16  1  0
 16 17  1  0
 16 18  1  0
 18 19  2  0
 18 20  1  0
 20 21  1  0
 21 22  1  0
 22 23  1  0
 23 24  1  0
 24 20  1  0
 24 25  1  0
 25 26  2  0
 25 27  1  0
  1 28  1  0
  1 29  1  0
  1 30  1  0
  2 31  1  0
  2 32  1  0
  6 33  1  6
  7 34  1  0
  7 35  1  0
  8 36  1  0
  8 37  1  0
 10 38  1  0
 11 39  1  0
 12 40  1  0
 13 41  1  0
 14 42  1  0
 15 43  1  0
 16 44  1  6
 17 45  1  0
 17 46  1  0
 17 47  1  0
 21 48  1  0
 21 49  1  0
 22 50  1  0
 22 51  1  0
 23 52  1  0
 23 53  1  0
 24 54  1  1
 27 55  1  0
M  END
> <ID>
HT0753

> <Class>
1.0

> <Clusters>
94

> <Fold>
4

$$$$