
     RDKit          3D

 34 37  0  0  0  0  0  0  0  0999 V2000
   -2.8625    2.1684   -0.6203 N   0  0  0  0  0  0  0  0  0  0  0  0
   -1.5082    2.1606   -0.1688 C   0  0  0  0  0  0  0  0  0  0  0  0
   -0.7260    3.1691   -0.3305 N   0  0  0  0  0  0  0  0  0  0  0  0
    0.5980    2.8512    0.1923 C   0  0  0  0  0  0  0  0  0  0  0  0
    0.4720    1.4257    0.7769 C   0  0  0  0  0  0  0  0  0  0  0  0
   -0.9031    1.0513    0.4722 N   0  0  0  0  0  0  0  0  0  0  0  0
   -1.4255   -0.2777    0.4716 C   0  0  0  0  0  0  0  0  0  0  0  0
   -2.3942   -0.6639    1.4056 C   0  0  0  0  0  0  0  0  0  0  0  0
   -2.8884   -1.9717    1.3962 C   0  0  0  0  0  0  0  0  0  0  0  0
   -2.4160   -2.8919    0.4547 C   0  0  0  0  0  0  0  0  0  0  0  0
   -1.4540   -2.5041   -0.4841 C   0  0  0  0  0  0  0  0  0  0  0  0
   -0.9642   -1.1883   -0.4841 C   0  0  0  0  0  0  0  0  0  0  0  0
    0.0649   -0.7308   -1.4764 C   0  0  0  0  0  0  0  0  0  0  0  0
    1.3839   -0.4930   -0.7830 C   0  0  0  0  0  0  0  0  0  0  0  0
    2.4834   -1.2808   -1.1753 C   0  0  0  0  0  0  0  0  0  0  0  0
    3.7346   -1.1082   -0.5864 C   0  0  0  0  0  0  0  0  0  0  0  0
    3.9127   -0.1459    0.4019 C   0  0  0  0  0  0  0  0  0  0  0  0
    2.8391    0.6446    0.8093 C   0  0  0  0  0  0  0  0  0  0  0  0
    1.5593    0.4885    0.2412 C   0  0  0  0  0  0  0  0  0  0  0  0
   -3.4769    1.3361   -0.4836 H   0  0  0  0  0  0  0  0  0  0  0  0
   -3.2539    3.0120   -1.0949 H   0  0  0  0  0  0  0  0  0  0  0  0
    1.3388    2.9019   -0.6355 H   0  0  0  0  0  0  0  0  0  0  0  0
    0.8755    3.5811    0.9828 H   0  0  0  0  0  0  0  0  0  0  0  0
    0.5609    1.4733    1.8856 H   0  0  0  0  0  0  0  0  0  0  0  0
   -2.7576    0.0452    2.1386 H   0  0  0  0  0  0  0  0  0  0  0  0
   -3.6345   -2.2731    2.1200 H   0  0  0  0  0  0  0  0  0  0  0  0
   -2.7964   -3.9052    0.4516 H   0  0  0  0  0  0  0  0  0  0  0  0
   -1.0964   -3.2249   -1.2086 H   0  0  0  0  0  0  0  0  0  0  0  0
    0.1635   -1.4804   -2.2923 H   0  0  0  0  0  0  0  0  0  0  0  0
   -0.2673    0.2099   -1.9659 H   0  0  0  0  0  0  0  0  0  0  0  0
    2.3751   -2.0358   -1.9444 H   0  0  0  0  0  0  0  0  0  0  0  0
    4.5696   -1.7214   -0.9002 H   0  0  0  0  0  0  0  0  0  0  0  0
    4.8865   -0.0105    0.8547 H   0  0  0  0  0  0  0  0  0  0  0  0
    3.0074    1.3887    1.5789 H   0  0  0  0  0  0  0  0  0  0  0  0
  1  2  1  0
  2  3  2  0
  3  4  1  0
  4  5  1  0
  5  6  1  0
  6  2  1  0
  6  7  1  0
  7  8  2  0
  8  9  1  0
  9 10  2  0
 10 11  1  0
 11 12  2  0
 12  7  1  0
 12 13  1  0
 13 14  1  0
 14 15  2  0
 15 16  1  0
 16 17  2  0
 17 18  1  0
 18 19  2  0
 19  5  1  0
 19 14  1  0
  1 20  1  0
  1 21  1  0
  4 22  1  0
  4 23  1  0
  5 24  1  0
  8 25  1  0
  9 26  1  0
 10 27  1  0
 11 28  1  0
 13 29  1  0
 13 30  1  0
 15 31  1  0
 16 32  1  0
 17 33  1  0
 18 34  1  0
M  END
> <ID>
HT0768

> <Class>
1.0

> <Clusters>
186

> <Fold>
4

$$$$