
     RDKit          3D

 56 56  0  0  0  0  0  0  0  0999 V2000
    6.9906   -4.3364    1.2722 C   0  0  0  0  0  0  0  0  0  0  0  0
    6.8677   -3.6071   -0.0593 C   0  0  0  0  0  0  0  0  0  0  0  0
    5.9307   -2.5380    0.0398 O   0  0  0  0  0  0  0  0  0  0  0  0
    6.1900   -1.3396    0.7353 C   0  0  0  0  0  0  0  0  0  0  0  0
    7.3670   -1.0672    1.1113 O   0  0  0  0  0  0  0  0  0  0  0  0
    5.1274   -0.3422    0.9176 C   0  0  0  0  0  0  0  0  0  0  0  0
    3.7943   -0.5988    0.9851 C   0  0  0  0  0  0  0  0  0  0  0  0
    3.2195   -2.0062    0.9779 C   0  0  0  0  0  0  0  0  0  0  0  0
    2.8909    0.5609    1.1987 C   0  0  0  0  0  0  0  0  0  0  0  0
    1.9981    0.9984    0.3077 C   0  0  0  0  0  0  0  0  0  0  0  0
    1.6794    0.3078   -0.9847 C   0  0  0  0  0  0  0  0  0  0  0  0
    0.8152    0.8491   -1.8363 C   0  0  0  0  0  0  0  0  0  0  0  0
    1.2906    1.0475   -3.2447 C   0  0  0  0  0  0  0  0  0  0  0  0
   -0.5922    1.2082   -1.4708 C   0  0  0  0  0  0  0  0  0  0  0  0
   -1.2454    0.7225   -0.4093 C   0  0  0  0  0  0  0  0  0  0  0  0
   -2.7186    0.9090   -0.2533 C   0  0  0  0  0  0  0  0  0  0  0  0
   -3.5562   -0.2405   -0.2071 C   0  0  0  0  0  0  0  0  0  0  0  0
   -2.9887   -1.6359   -0.3488 C   0  0  0  0  0  0  0  0  0  0  0  0
   -4.9382   -0.0965   -0.0230 C   0  0  0  0  0  0  0  0  0  0  0  0
   -5.5281    1.1683    0.0777 C   0  0  0  0  0  0  0  0  0  0  0  0
   -6.9142    1.3199    0.2719 O   0  0  0  0  0  0  0  0  0  0  0  0
   -7.8763    0.2651    0.2838 C   0  0  0  0  0  0  0  0  0  0  0  0
   -4.7187    2.3245   -0.0091 C   0  0  0  0  0  0  0  0  0  0  0  0
   -5.3751    3.6806    0.0631 C   0  0  0  0  0  0  0  0  0  0  0  0
   -3.3003    2.2004   -0.1069 C   0  0  0  0  0  0  0  0  0  0  0  0
   -2.4184    3.4329   -0.0769 C   0  0  0  0  0  0  0  0  0  0  0  0
    7.4934   -3.6757    2.0196 H   0  0  0  0  0  0  0  0  0  0  0  0
    5.9854   -4.6261    1.6543 H   0  0  0  0  0  0  0  0  0  0  0  0
    7.6286   -5.2471    1.1471 H   0  0  0  0  0  0  0  0  0  0  0  0
    6.5231   -4.3291   -0.8317 H   0  0  0  0  0  0  0  0  0  0  0  0
    7.8798   -3.2063   -0.3599 H   0  0  0  0  0  0  0  0  0  0  0  0
    5.4718    0.6946    1.0251 H   0  0  0  0  0  0  0  0  0  0  0  0
    3.3642   -2.4898   -0.0079 H   0  0  0  0  0  0  0  0  0  0  0  0
    2.1284   -1.9867    1.2009 H   0  0  0  0  0  0  0  0  0  0  0  0
    3.7141   -2.6416    1.7564 H   0  0  0  0  0  0  0  0  0  0  0  0
    3.1629    1.2581    1.9966 H   0  0  0  0  0  0  0  0  0  0  0  0
    1.6531    2.0416    0.4401 H   0  0  0  0  0  0  0  0  0  0  0  0
    2.2879   -0.5701   -1.3054 H   0  0  0  0  0  0  0  0  0  0  0  0
    1.1637    0.1352   -3.8712 H   0  0  0  0  0  0  0  0  0  0  0  0
    2.3790    1.3224   -3.2611 H   0  0  0  0  0  0  0  0  0  0  0  0
    0.7448    1.8899   -3.7344 H   0  0  0  0  0  0  0  0  0  0  0  0
   -1.1409    1.8034   -2.1907 H   0  0  0  0  0  0  0  0  0  0  0  0
   -0.7419    0.0576    0.2780 H   0  0  0  0  0  0  0  0  0  0  0  0
   -2.2924   -1.8309    0.4968 H   0  0  0  0  0  0  0  0  0  0  0  0
   -2.4501   -1.7341   -1.3099 H   0  0  0  0  0  0  0  0  0  0  0  0
   -3.7767   -2.4240   -0.3337 H   0  0  0  0  0  0  0  0  0  0  0  0
   -5.5539   -0.9901    0.0347 H   0  0  0  0  0  0  0  0  0  0  0  0
   -7.9402   -0.2059   -0.7273 H   0  0  0  0  0  0  0  0  0  0  0  0
   -7.6119   -0.4969    1.0548 H   0  0  0  0  0  0  0  0  0  0  0  0
   -8.8748    0.6959    0.5450 H   0  0  0  0  0  0  0  0  0  0  0  0
   -6.4501    3.6579   -0.2102 H   0  0  0  0  0  0  0  0  0  0  0  0
   -4.8990    4.3719   -0.6475 H   0  0  0  0  0  0  0  0  0  0  0  0
   -5.2911    4.0771    1.0869 H   0  0  0  0  0  0  0  0  0  0  0  0
   -1.4064    3.2015    0.3106 H   0  0  0  0  0  0  0  0  0  0  0  0
   -2.3207    3.8624   -1.0873 H   0  0  0  0  0  0  0  0  0  0  0  0
   -2.8210    4.1984    0.6111 H   0  0  0  0  0  0  0  0  0  0  0  0
  1  2  1  0
  2  3  1  0
  3  4  1  0
  4  5  2  0
  4  6  1  0
  6  7  2  3
  7  8  1  0
  7  9  1  0
  9 10  2  3
 10 11  1  0
 11 12  2  3
 12 13  1  0
 12 14  1  0
 14 15  2  3
 15 16  1  0
 16 17  2  0
 17 18  1  0
 17 19  1  0
 19 20  2  0
 20 21  1  0
 21 22  1  0
 20 23  1  0
 23 24  1  0
 23 25  2  0
 25 16  1  0
 25 26  1  0
  1 27  1  0
  1 28  1  0
  1 29  1  0
  2 30  1  0
  2 31  1  0
  6 32  1  0
  8 33  1  0
  8 34  1  0
  8 35  1  0
  9 36  1  0
 10 37  1  0
 11 38  1  0
 13 39  1  0
 13 40  1  0
 13 41  1  0
 14 42  1  0
 15 43  1  0
 18 44  1  0
 18 45  1  0
 18 46  1  0
 19 47  1  0
 22 48  1  0
 22 49  1  0
 22 50  1  0
 24 51  1  0
 24 52  1  0
 24 53  1  0
 26 54  1  0
 26 55  1  0
 26 56  1  0
M  END
> <ID>
HT0835

> <Class>
1.0

> <Clusters>
100

> <Fold>
4

$$$$