
     RDKit          3D

 37 39  0  0  0  0  0  0  0  0999 V2000
    5.8702   -0.3965   -2.1220 N   0  0  0  0  0  0  0  0  0  0  0  0
    4.8939    0.2917   -1.3401 C   0  0  0  0  0  0  0  0  0  0  0  0
    5.2267    1.4244   -0.6512 N   0  0  0  0  0  0  0  0  0  0  0  0
    4.3041    2.0948    0.1120 C   0  0  0  0  0  0  0  0  0  0  0  0
    4.6711    3.2124    0.7834 F   0  0  0  0  0  0  0  0  0  0  0  0
    3.0173    1.6410    0.2014 N   0  0  0  0  0  0  0  0  0  0  0  0
    2.6900    0.5212   -0.4879 C   0  0  0  0  0  0  0  0  0  0  0  0
    3.5823   -0.1585   -1.2434 C   0  0  0  0  0  0  0  0  0  0  0  0
    3.0074   -1.2468   -1.7897 N   0  0  0  0  0  0  0  0  0  0  0  0
    1.7299   -1.1774   -1.3226 C   0  0  0  0  0  0  0  0  0  0  0  0
    1.5036   -0.0964   -0.5307 N   0  0  0  0  0  0  0  0  0  0  0  0
    0.2872    0.2370    0.2120 C   0  0  0  0  0  0  0  0  0  0  0  0
   -0.8547   -0.0711   -0.5643 O   0  0  0  0  0  0  0  0  0  0  0  0
   -1.6491   -0.9664    0.1827 C   0  0  0  0  0  0  0  0  0  0  0  0
   -3.1423   -0.7169   -0.0751 C   0  0  0  0  0  0  0  0  0  0  0  0
   -3.4328    0.6563    0.0430 O   0  0  0  0  0  0  0  0  0  0  0  0
   -5.1149    0.8790   -0.1327 P   0  0  0  0  0  0  0  0  0  0  0  0
   -5.3997    2.3626   -0.1660 O   0  0  0  0  0  0  0  0  0  0  0  0
   -5.6623    0.1932   -1.5836 O   0  0  0  0  0  0  0  0  0  0  0  0
   -5.9344    0.2035    1.1886 O   0  0  0  0  0  0  0  0  0  0  0  0
   -1.2352   -0.8784    1.6537 C   0  0  0  0  0  0  0  0  0  0  0  0
   -1.9575    0.1021    2.3664 O   0  0  0  0  0  0  0  0  0  0  0  0
    0.2304   -0.5350    1.5331 C   0  0  0  0  0  0  0  0  0  0  0  0
    0.6739    0.2434    2.6143 O   0  0  0  0  0  0  0  0  0  0  0  0
    6.8488   -0.0366   -2.1744 H   0  0  0  0  0  0  0  0  0  0  0  0
    5.6231   -1.2631   -2.6498 H   0  0  0  0  0  0  0  0  0  0  0  0
    0.9774   -1.9216   -1.5494 H   0  0  0  0  0  0  0  0  0  0  0  0
    0.2688    1.3313    0.4151 H   0  0  0  0  0  0  0  0  0  0  0  0
   -1.4205   -1.9979   -0.1715 H   0  0  0  0  0  0  0  0  0  0  0  0
   -3.3670   -1.0635   -1.1087 H   0  0  0  0  0  0  0  0  0  0  0  0
   -3.7288   -1.3257    0.6498 H   0  0  0  0  0  0  0  0  0  0  0  0
   -5.8005   -0.7671   -1.3863 H   0  0  0  0  0  0  0  0  0  0  0  0
   -6.0489   -0.7545    0.9678 H   0  0  0  0  0  0  0  0  0  0  0  0
   -1.3701   -1.8595    2.1597 H   0  0  0  0  0  0  0  0  0  0  0  0
   -1.7682    0.9886    1.9609 H   0  0  0  0  0  0  0  0  0  0  0  0
    0.8184   -1.4818    1.4691 H   0  0  0  0  0  0  0  0  0  0  0  0
    1.6622    0.2920    2.5364 H   0  0  0  0  0  0  0  0  0  0  0  0
  1  2  1  0
  2  3  2  0
  3  4  1  0
  4  5  1  0
  4  6  2  0
  6  7  1  0
  7  8  2  0
  8  2  1  0
  8  9  1  0
  9 10  2  0
 10 11  1  0
 11  7  1  0
 11 12  1  0
 12 13  1  0
 13 14  1  0
 14 15  1  0
 15 16  1  0
 16 17  1  0
 17 18  2  0
 17 19  1  0
 17 20  1  0
 14 21  1  0
 21 22  1  0
 21 23  1  0
 23 12  1  0
 23 24  1  0
  1 25  1  0
  1 26  1  0
 10 27  1  0
 12 28  1  0
 14 29  1  0
 15 30  1  0
 15 31  1  0
 19 32  1  0
 20 33  1  0
 21 34  1  0
 22 35  1  0
 23 36  1  0
 24 37  1  0
M  END
> <ID>
HT0891

> <Class>
1.0

> <Clusters>
7

> <Fold>
4

$$$$