
     RDKit          3D

 76 78  0  0  0  0  0  0  0  0999 V2000
    6.8867    2.0498   -1.4232 C   0  0  0  0  0  0  0  0  0  0  0  0
    6.7794    0.7247   -0.8078 N   0  0  0  0  0  0  0  0  0  0  0  0
    5.4812    0.5193   -0.1335 C   0  0  2  0  0  0  0  0  0  0  0  0
    5.4674    1.1931    1.2538 C   0  0  0  0  0  0  0  0  0  0  0  0
    5.2027   -0.9999   -0.0050 C   0  0  2  0  0  0  0  0  0  0  0  0
    5.3955   -1.7477   -1.3540 C   0  0  0  0  0  0  0  0  0  0  0  0
    4.6036   -3.0515   -1.3423 C   0  0  0  0  0  0  0  0  0  0  0  0
    3.1078   -2.7861   -1.0753 C   0  0  1  0  0  0  0  0  0  0  0  0
    2.5391   -3.9256   -0.3465 N   0  0  0  0  0  0  0  0  0  0  0  0
    2.8937   -1.4369   -0.3297 C   0  0  1  0  0  0  0  0  0  0  0  0
    1.6477   -1.4744    0.3509 O   0  0  0  0  0  0  0  0  0  0  0  0
    1.0084   -0.2086    0.4341 C   0  0  2  0  0  0  0  0  0  0  0  0
    1.4081    0.5054    1.7621 C   0  0  1  0  0  0  0  0  0  0  0  0
    1.6151    1.9396    1.5363 N   0  0  0  0  0  0  0  0  0  0  0  0
    0.3525    0.2902    2.8605 C   0  0  0  0  0  0  0  0  0  0  0  0
   -1.0469    0.8248    2.4597 C   0  0  1  0  0  0  0  0  0  0  0  0
   -1.1986    2.2186    2.8889 N   0  0  0  0  0  0  0  0  0  0  0  0
   -1.3301    0.7014    0.9323 C   0  0  2  0  0  0  0  0  0  0  0  0
   -2.7149    0.4372    0.7443 O   0  0  0  0  0  0  0  0  0  0  0  0
   -3.4023    1.5399    0.1653 C   0  0  1  0  0  0  0  0  0  0  0  0
   -3.2609    1.5417   -1.2481 O   0  0  0  0  0  0  0  0  0  0  0  0
   -3.8533    0.3917   -1.8294 C   0  0  0  0  0  0  0  0  0  0  0  0
   -5.3851    0.3741   -1.6180 C   0  0  2  0  0  0  0  0  0  0  0  0
   -5.9830   -0.8814   -2.2876 C   0  0  0  0  0  0  0  0  0  0  0  0
   -5.9517    1.5333   -2.1848 O   0  0  0  0  0  0  0  0  0  0  0  0
   -5.6549    0.3614   -0.0839 C   0  0  2  0  0  0  0  0  0  0  0  0
   -7.0936    0.4835    0.2500 N   0  0  0  0  0  0  0  0  0  0  0  0
   -7.6406   -0.7600    0.8000 C   0  0  0  0  0  0  0  0  0  0  0  0
   -4.8928    1.5306    0.5760 C   0  0  1  0  0  0  0  0  0  0  0  0
   -5.0256    1.5092    1.9773 O   0  0  0  0  0  0  0  0  0  0  0  0
   -0.5188   -0.4561    0.3191 C   0  0  1  0  0  0  0  0  0  0  0  0
   -0.8650   -0.6069   -1.0325 O   0  0  0  0  0  0  0  0  0  0  0  0
    3.9353   -1.2364    0.6126 O   0  0  0  0  0  0  0  0  0  0  0  0
    6.0541    2.2182   -2.1396 H   0  0  0  0  0  0  0  0  0  0  0  0
    6.8939    2.8489   -0.6526 H   0  0  0  0  0  0  0  0  0  0  0  0
    7.8381    2.1101   -1.9915 H   0  0  0  0  0  0  0  0  0  0  0  0
    7.5661    0.6048   -0.1271 H   0  0  0  0  0  0  0  0  0  0  0  0
    4.6594    0.9616   -0.7410 H   0  0  0  0  0  0  0  0  0  0  0  0
    4.5049    1.0074    1.7680 H   0  0  0  0  0  0  0  0  0  0  0  0
    5.5816    2.2921    1.1568 H   0  0  0  0  0  0  0  0  0  0  0  0
    6.2866    0.7968    1.8924 H   0  0  0  0  0  0  0  0  0  0  0  0
    5.9684   -1.4160    0.6872 H   0  0  0  0  0  0  0  0  0  0  0  0
    5.0471   -1.1212   -2.2055 H   0  0  0  0  0  0  0  0  0  0  0  0
    6.4726   -1.9684   -1.5160 H   0  0  0  0  0  0  0  0  0  0  0  0
    4.7270   -3.5743   -2.3158 H   0  0  0  0  0  0  0  0  0  0  0  0
    5.0282   -3.7104   -0.5509 H   0  0  0  0  0  0  0  0  0  0  0  0
    2.5938   -2.7122   -2.0608 H   0  0  0  0  0  0  0  0  0  0  0  0
    1.4957   -3.8765   -0.3938 H   0  0  0  0  0  0  0  0  0  0  0  0
    2.8200   -3.8738    0.6595 H   0  0  0  0  0  0  0  0  0  0  0  0
    2.9204   -0.6383   -1.1091 H   0  0  0  0  0  0  0  0  0  0  0  0
    1.2678    0.4585   -0.4207 H   0  0  0  0  0  0  0  0  0  0  0  0
    2.3579    0.0710    2.1401 H   0  0  0  0  0  0  0  0  0  0  0  0
    2.3879    2.0569    0.8433 H   0  0  0  0  0  0  0  0  0  0  0  0
    1.9662    2.3641    2.4238 H   0  0  0  0  0  0  0  0  0  0  0  0
    0.6970    0.7531    3.8123 H   0  0  0  0  0  0  0  0  0  0  0  0
    0.2757   -0.8022    3.0612 H   0  0  0  0  0  0  0  0  0  0  0  0
   -1.7947    0.2063    3.0102 H   0  0  0  0  0  0  0  0  0  0  0  0
   -2.1931    2.5025    2.7293 H   0  0  0  0  0  0  0  0  0  0  0  0
   -1.0674    2.2608    3.9295 H   0  0  0  0  0  0  0  0  0  0  0  0
   -0.9824    1.6320    0.4170 H   0  0  0  0  0  0  0  0  0  0  0  0
   -3.0053    2.5098    0.5438 H   0  0  0  0  0  0  0  0  0  0  0  0
   -3.6303    0.4075   -2.9179 H   0  0  0  0  0  0  0  0  0  0  0  0
   -3.3958   -0.5427   -1.4356 H   0  0  0  0  0  0  0  0  0  0  0  0
   -7.0912   -0.8694   -2.2257 H   0  0  0  0  0  0  0  0  0  0  0  0
   -5.6051   -1.8066   -1.8037 H   0  0  0  0  0  0  0  0  0  0  0  0
   -5.7050   -0.9153   -3.3609 H   0  0  0  0  0  0  0  0  0  0  0  0
   -5.7569    1.5256   -3.1592 H   0  0  0  0  0  0  0  0  0  0  0  0
   -5.2275   -0.5829    0.3329 H   0  0  0  0  0  0  0  0  0  0  0  0
   -7.6667    0.7557   -0.5808 H   0  0  0  0  0  0  0  0  0  0  0  0
   -8.7389   -0.6582    0.9255 H   0  0  0  0  0  0  0  0  0  0  0  0
   -7.1931   -0.9594    1.7968 H   0  0  0  0  0  0  0  0  0  0  0  0
   -7.4417   -1.6193    0.1249 H   0  0  0  0  0  0  0  0  0  0  0  0
   -5.3440    2.4832    0.2172 H   0  0  0  0  0  0  0  0  0  0  0  0
   -4.7152    0.6241    2.3017 H   0  0  0  0  0  0  0  0  0  0  0  0
   -0.7908   -1.3875    0.8728 H   0  0  0  0  0  0  0  0  0  0  0  0
   -0.5715   -1.5148   -1.3042 H   0  0  0  0  0  0  0  0  0  0  0  0
  1  2  1  0
  2  3  1  0
  3  4  1  0
  5  3  1  0
  5  6  1  0
  6  7  1  0
  7  8  1  0
  8  9  1  0
  8 10  1  0
 10 11  1  0
 12 11  1  0
 12 13  1  0
 13 14  1  0
 13 15  1  0
 15 16  1  0
 16 17  1  0
 16 18  1  0
 18 19  1  0
 20 19  1  0
 20 21  1  0
 21 22  1  0
 22 23  1  0
 23 24  1  0
 23 25  1  6
 23 26  1  0
 26 27  1  0
 27 28  1  0
 26 29  1  0
 29 20  1  0
 29 30  1  0
 18 31  1  0
 31 12  1  0
 31 32  1  0
 10 33  1  0
 33  5  1  0
  1 34  1  0
  1 35  1  0
  1 36  1  0
  2 37  1  0
  3 38  1  6
  4 39  1  0
  4 40  1  0
  4 41  1  0
  5 42  1  1
  6 43  1  0
  6 44  1  0
  7 45  1  0
  7 46  1  0
  8 47  1  6
  9 48  1  0
  9 49  1  0
 10 50  1  6
 12 51  1  6
 13 52  1  1
 14 53  1  0
 14 54  1  0
 15 55  1  0
 15 56  1  0
 16 57  1  1
 17 58  1  0
 17 59  1  0
 18 60  1  6
 20 61  1  1
 22 62  1  0
 22 63  1  0
 24 64  1  0
 24 65  1  0
 24 66  1  0
 25 67  1  0
 26 68  1  1
 27 69  1  0
 28 70  1  0
 28 71  1  0
 28 72  1  0
 29 73  1  6
 30 74  1  0
 31 75  1  1
 32 76  1  0
M  END
> <ID>
HT0972

> <Class>
1.0

> <Clusters>
277

> <Fold>
4

$$$$