
     RDKit          3D

 85 88  0  0  0  0  0  0  0  0999 V2000
   11.2933   -2.9328    0.0834 C   0  0  0  0  0  0  0  0  0  0  0  0
   10.1150   -2.1656    0.6779 C   0  0  0  0  0  0  0  0  0  0  0  0
    9.9362   -0.8073   -0.0156 C   0  0  0  0  0  0  0  0  0  0  0  0
    8.8636    0.0660    0.6544 C   0  0  0  0  0  0  0  0  0  0  0  0
    7.4374   -0.4659    0.4252 C   0  0  0  0  0  0  0  0  0  0  0  0
    6.3623    0.4924    0.9661 C   0  0  0  0  0  0  0  0  0  0  0  0
    6.0869    1.6619    0.0050 C   0  0  0  0  0  0  0  0  0  0  0  0
    5.1352    2.7153    0.6003 C   0  0  0  0  0  0  0  0  0  0  0  0
    3.7105    2.2059    0.8700 C   0  0  0  0  0  0  0  0  0  0  0  0
    3.0576    1.6520   -0.3591 C   0  0  0  0  0  0  0  0  0  0  0  0
    2.9319    2.3739   -1.3865 O   0  0  0  0  0  0  0  0  0  0  0  0
    2.5812    0.3386   -0.3477 O   0  0  0  0  0  0  0  0  0  0  0  0
    1.9803   -0.2750   -1.4838 C   0  0  0  0  0  0  0  0  0  0  0  0
    1.3797   -1.6313   -1.0973 C   0  0  0  0  0  0  0  0  0  0  0  0
    0.0648   -1.5417   -0.4245 N   0  0  0  0  0  0  0  0  0  0  0  0
   -1.1115   -1.2947   -1.2818 C   0  0  0  0  0  0  0  0  0  0  0  0
   -1.6348    0.1537   -1.2072 C   0  0  0  0  0  0  0  0  0  0  0  0
   -1.7293    0.6716    0.1725 N   0  0  0  0  0  0  0  0  0  0  0  0
   -2.8796    0.1296    0.9304 C   0  0  0  0  0  0  0  0  0  0  0  0
   -4.1203    0.9954    0.6824 C   0  0  0  0  0  0  0  0  0  0  0  0
   -5.3392    0.4992    1.4840 C   0  0  0  0  0  0  0  0  0  0  0  0
   -6.5729    0.5583    0.6853 N   0  0  0  0  0  0  0  0  0  0  0  0
   -7.4134    1.7353    0.6908 C   0  0  0  0  0  0  0  0  0  0  0  0
   -6.8685    3.0209    0.5287 C   0  0  0  0  0  0  0  0  0  0  0  0
   -7.7066    4.1284    0.3633 C   0  0  0  0  0  0  0  0  0  0  0  0
   -9.0939    3.9632    0.3430 C   0  0  0  0  0  0  0  0  0  0  0  0
   -9.6482    2.6922    0.5067 C   0  0  0  0  0  0  0  0  0  0  0  0
   -8.8144    1.5845    0.6948 C   0  0  0  0  0  0  0  0  0  0  0  0
   -9.5297   -0.0205    1.0518 S   0  0  0  0  0  0  0  0  0  0  0  0
   -8.4234   -0.8861   -0.0616 C   0  0  0  0  0  0  0  0  0  0  0  0
   -8.9185   -1.8918   -0.8946 C   0  0  0  0  0  0  0  0  0  0  0  0
   -8.0413   -2.6654   -1.6581 C   0  0  0  0  0  0  0  0  0  0  0  0
   -6.6542   -2.4508   -1.5835 C   0  0  0  0  0  0  0  0  0  0  0  0
   -6.1670   -1.4031   -0.7831 C   0  0  0  0  0  0  0  0  0  0  0  0
   -7.0455   -0.6118   -0.0210 C   0  0  0  0  0  0  0  0  0  0  0  0
   -5.7050   -3.2476   -2.4419 C   0  0  0  0  0  0  0  0  0  0  0  0
   -4.5054   -3.4450   -1.7799 F   0  0  0  0  0  0  0  0  0  0  0  0
   -6.2376   -4.4869   -2.7495 F   0  0  0  0  0  0  0  0  0  0  0  0
   -5.4642   -2.5562   -3.6141 F   0  0  0  0  0  0  0  0  0  0  0  0
   -0.4457    0.5282    0.8787 C   0  0  0  0  0  0  0  0  0  0  0  0
    0.0327   -0.9298    0.9152 C   0  0  0  0  0  0  0  0  0  0  0  0
   11.1334   -3.1064   -1.0019 H   0  0  0  0  0  0  0  0  0  0  0  0
   11.3912   -3.9161    0.5896 H   0  0  0  0  0  0  0  0  0  0  0  0
   12.2372   -2.3652    0.2285 H   0  0  0  0  0  0  0  0  0  0  0  0
    9.1969   -2.7789    0.5560 H   0  0  0  0  0  0  0  0  0  0  0  0
   10.2983   -2.0139    1.7633 H   0  0  0  0  0  0  0  0  0  0  0  0
    9.6818   -0.9594   -1.0876 H   0  0  0  0  0  0  0  0  0  0  0  0
   10.9006   -0.2541    0.0256 H   0  0  0  0  0  0  0  0  0  0  0  0
    9.0665    0.1431    1.7453 H   0  0  0  0  0  0  0  0  0  0  0  0
    8.9546    1.0864    0.2284 H   0  0  0  0  0  0  0  0  0  0  0  0
    7.3275   -1.4339    0.9585 H   0  0  0  0  0  0  0  0  0  0  0  0
    7.2650   -0.6562   -0.6571 H   0  0  0  0  0  0  0  0  0  0  0  0
    6.6651    0.8768    1.9649 H   0  0  0  0  0  0  0  0  0  0  0  0
    5.4245   -0.0899    1.0949 H   0  0  0  0  0  0  0  0  0  0  0  0
    5.6756    1.2727   -0.9507 H   0  0  0  0  0  0  0  0  0  0  0  0
    7.0375    2.1791   -0.2379 H   0  0  0  0  0  0  0  0  0  0  0  0
    5.5646    3.0998    1.5510 H   0  0  0  0  0  0  0  0  0  0  0  0
    5.0799    3.5769   -0.1008 H   0  0  0  0  0  0  0  0  0  0  0  0
    3.7273    1.4347    1.6689 H   0  0  0  0  0  0  0  0  0  0  0  0
    3.0953    3.0515    1.2452 H   0  0  0  0  0  0  0  0  0  0  0  0
    2.7657   -0.4366   -2.2535 H   0  0  0  0  0  0  0  0  0  0  0  0
    1.2086    0.3851   -1.9232 H   0  0  0  0  0  0  0  0  0  0  0  0
    1.2834   -2.2531   -2.0143 H   0  0  0  0  0  0  0  0  0  0  0  0
    2.0928   -2.1736   -0.4387 H   0  0  0  0  0  0  0  0  0  0  0  0
   -0.8886   -1.5365   -2.3446 H   0  0  0  0  0  0  0  0  0  0  0  0
   -1.9183   -1.9934   -0.9767 H   0  0  0  0  0  0  0  0  0  0  0  0
   -2.6256    0.2008   -1.7082 H   0  0  0  0  0  0  0  0  0  0  0  0
   -0.9752    0.8222   -1.7968 H   0  0  0  0  0  0  0  0  0  0  0  0
   -3.0897   -0.9257    0.6541 H   0  0  0  0  0  0  0  0  0  0  0  0
   -2.6771    0.1437    2.0253 H   0  0  0  0  0  0  0  0  0  0  0  0
   -3.8813    2.0352    0.9891 H   0  0  0  0  0  0  0  0  0  0  0  0
   -4.3533    1.0142   -0.4023 H   0  0  0  0  0  0  0  0  0  0  0  0
   -5.1849   -0.5455    1.8358 H   0  0  0  0  0  0  0  0  0  0  0  0
   -5.4556    1.1154    2.4029 H   0  0  0  0  0  0  0  0  0  0  0  0
   -5.8017    3.1725    0.4896 H   0  0  0  0  0  0  0  0  0  0  0  0
   -7.2793    5.1146    0.2302 H   0  0  0  0  0  0  0  0  0  0  0  0
   -9.7400    4.8218    0.2079 H   0  0  0  0  0  0  0  0  0  0  0  0
  -10.7240    2.5729    0.5120 H   0  0  0  0  0  0  0  0  0  0  0  0
   -9.9809   -2.0969   -0.9270 H   0  0  0  0  0  0  0  0  0  0  0  0
   -8.4467   -3.4389   -2.2973 H   0  0  0  0  0  0  0  0  0  0  0  0
   -5.1084   -1.1871   -0.7861 H   0  0  0  0  0  0  0  0  0  0  0  0
    0.3090    1.1655    0.3778 H   0  0  0  0  0  0  0  0  0  0  0  0
   -0.5288    0.9184    1.9167 H   0  0  0  0  0  0  0  0  0  0  0  0
    1.0333   -0.9779    1.3970 H   0  0  0  0  0  0  0  0  0  0  0  0
   -0.6546   -1.5212    1.5567 H   0  0  0  0  0  0  0  0  0  0  0  0
  1  2  1  0
  2  3  1  0
  3  4  1  0
  4  5  1  0
  5  6  1  0
  6  7  1  0
  7  8  1  0
  8  9  1  0
  9 10  1  0
 10 11  2  0
 10 12  1  0
 12 13  1  0
 13 14  1  0
 14 15  1  0
 15 16  1  0
 16 17  1  0
 17 18  1  0
 18 19  1  0
 19 20  1  0
 20 21  1  0
 21 22  1  0
 22 23  1  0
 23 24  2  0
 24 25  1  0
 25 26  2  0
 26 27  1  0
 27 28  2  0
 28 23  1  0
 28 29  1  0
 29 30  1  0
 30 31  2  0
 31 32  1  0
 32 33  2  0
 33 34  1  0
 34 35  2  0
 35 22  1  0
 35 30  1  0
 33 36  1  0
 36 37  1  0
 36 38  1  0
 36 39  1  0
 18 40  1  0
 40 41  1  0
 41 15  1  0
  1 42  1  0
  1 43  1  0
  1 44  1  0
  2 45  1  0
  2 46  1  0
  3 47  1  0
  3 48  1  0
  4 49  1  0
  4 50  1  0
  5 51  1  0
  5 52  1  0
  6 53  1  0
  6 54  1  0
  7 55  1  0
  7 56  1  0
  8 57  1  0
  8 58  1  0
  9 59  1  0
  9 60  1  0
 13 61  1  0
 13 62  1  0
 14 63  1  0
 14 64  1  0
 16 65  1  0
 16 66  1  0
 17 67  1  0
 17 68  1  0
 19 69  1  0
 19 70  1  0
 20 71  1  0
 20 72  1  0
 21 73  1  0
 21 74  1  0
 24 75  1  0
 25 76  1  0
 26 77  1  0
 27 78  1  0
 31 79  1  0
 32 80  1  0
 34 81  1  0
 40 82  1  0
 40 83  1  0
 41 84  1  0
 41 85  1  0
M  END
> <ID>
HT0913

> <Class>
1.0

> <Clusters>
276

> <Fold>
4

$$$$