
     RDKit          3D

 78 80  0  0  0  0  0  0  0  0999 V2000
   -9.3224    2.3620   -1.8129 C   0  0  0  0  0  0  0  0  0  0  0  0
   -8.2229    1.3583   -1.4791 C   0  0  0  0  0  0  0  0  0  0  0  0
   -8.7414    0.2587   -0.5394 C   0  0  0  0  0  0  0  0  0  0  0  0
   -7.6955   -0.8341   -0.2704 C   0  0  0  0  0  0  0  0  0  0  0  0
   -6.5261   -0.3339    0.5909 C   0  0  0  0  0  0  0  0  0  0  0  0
   -5.5842   -1.4843    0.9716 C   0  0  0  0  0  0  0  0  0  0  0  0
   -4.3675   -0.9528    1.7424 C   0  0  0  0  0  0  0  0  0  0  0  0
   -3.4574   -2.0738    2.2781 C   0  0  0  0  0  0  0  0  0  0  0  0
   -2.6842   -2.8253    1.1836 C   0  0  0  0  0  0  0  0  0  0  0  0
   -1.6950   -1.9418    0.4876 C   0  0  0  0  0  0  0  0  0  0  0  0
   -1.8569   -1.6653   -0.7321 O   0  0  0  0  0  0  0  0  0  0  0  0
   -0.5921   -1.4422    1.2011 O   0  0  0  0  0  0  0  0  0  0  0  0
    0.4736   -0.6540    0.6378 C   0  0  0  0  0  0  0  0  0  0  0  0
    1.2368   -1.5448   -0.4094 C   0  0  0  0  0  0  0  0  0  0  0  0
    2.5828   -2.0731    0.1127 C   0  0  0  0  0  0  0  0  0  0  0  0
    3.4864   -0.9923    0.5785 N   0  0  0  0  0  0  0  0  0  0  0  0
    4.3633   -0.4815   -0.4981 C   0  0  0  0  0  0  0  0  0  0  0  0
    5.6271   -1.3478   -0.6119 C   0  0  0  0  0  0  0  0  0  0  0  0
    6.5409   -0.8974   -1.7638 C   0  0  0  0  0  0  0  0  0  0  0  0
    7.0857    0.4956   -1.5600 C   0  0  0  0  0  0  0  0  0  0  0  0
    6.7038    1.4026   -2.3499 O   0  0  0  0  0  0  0  0  0  0  0  0
    8.0371    0.8381   -0.4663 C   0  0  0  0  0  0  0  0  0  0  0  0
    8.7464   -0.1563    0.2382 C   0  0  0  0  0  0  0  0  0  0  0  0
    9.6393    0.1953    1.2558 C   0  0  0  0  0  0  0  0  0  0  0  0
    9.8398    1.5390    1.5818 C   0  0  0  0  0  0  0  0  0  0  0  0
   10.7060    1.8749    2.5702 F   0  0  0  0  0  0  0  0  0  0  0  0
    9.1441    2.5346    0.8935 C   0  0  0  0  0  0  0  0  0  0  0  0
    8.2499    2.1886   -0.1247 C   0  0  0  0  0  0  0  0  0  0  0  0
    2.8096    0.1071    1.3137 C   0  0  0  0  0  0  0  0  0  0  0  0
    1.4105   -0.2782    1.8127 C   0  0  0  0  0  0  0  0  0  0  0  0
   -0.0998    0.6530    0.0492 C   0  0  0  0  0  0  0  0  0  0  0  0
   -1.2508    1.2281    0.6336 C   0  0  0  0  0  0  0  0  0  0  0  0
   -1.7895    2.4206    0.1436 C   0  0  0  0  0  0  0  0  0  0  0  0
   -1.1659    3.0898   -0.9111 C   0  0  0  0  0  0  0  0  0  0  0  0
   -1.8356    4.5942   -1.5169 Cl  0  0  0  0  0  0  0  0  0  0  0  0
    0.0132    2.5794   -1.4565 C   0  0  0  0  0  0  0  0  0  0  0  0
    0.5552    1.3852   -0.9708 C   0  0  0  0  0  0  0  0  0  0  0  0
  -10.1696    1.8545   -2.3240 H   0  0  0  0  0  0  0  0  0  0  0  0
   -8.9160    3.1454   -2.4884 H   0  0  0  0  0  0  0  0  0  0  0  0
   -9.6900    2.8508   -0.8843 H   0  0  0  0  0  0  0  0  0  0  0  0
   -7.8536    0.9031   -2.4233 H   0  0  0  0  0  0  0  0  0  0  0  0
   -7.3862    1.9084   -0.9997 H   0  0  0  0  0  0  0  0  0  0  0  0
   -9.0701    0.7088    0.4239 H   0  0  0  0  0  0  0  0  0  0  0  0
   -9.6285   -0.2248   -1.0069 H   0  0  0  0  0  0  0  0  0  0  0  0
   -8.2020   -1.6686    0.2621 H   0  0  0  0  0  0  0  0  0  0  0  0
   -7.3123   -1.2310   -1.2360 H   0  0  0  0  0  0  0  0  0  0  0  0
   -6.9223    0.1362    1.5196 H   0  0  0  0  0  0  0  0  0  0  0  0
   -5.9488    0.4290    0.0248 H   0  0  0  0  0  0  0  0  0  0  0  0
   -6.1337   -2.2184    1.6024 H   0  0  0  0  0  0  0  0  0  0  0  0
   -5.2457   -1.9938    0.0434 H   0  0  0  0  0  0  0  0  0  0  0  0
   -4.7243   -0.3597    2.6133 H   0  0  0  0  0  0  0  0  0  0  0  0
   -3.7911   -0.2683    1.0860 H   0  0  0  0  0  0  0  0  0  0  0  0
   -2.7298   -1.6306    2.9934 H   0  0  0  0  0  0  0  0  0  0  0  0
   -4.0711   -2.8032    2.8502 H   0  0  0  0  0  0  0  0  0  0  0  0
   -3.3872   -3.2719    0.4508 H   0  0  0  0  0  0  0  0  0  0  0  0
   -2.1297   -3.6671    1.6485 H   0  0  0  0  0  0  0  0  0  0  0  0
    1.4111   -1.0454   -1.3786 H   0  0  0  0  0  0  0  0  0  0  0  0
    0.6279   -2.4341   -0.6748 H   0  0  0  0  0  0  0  0  0  0  0  0
    2.3938   -2.7684    0.9590 H   0  0  0  0  0  0  0  0  0  0  0  0
    3.0597   -2.6869   -0.6815 H   0  0  0  0  0  0  0  0  0  0  0  0
    3.8241   -0.4512   -1.4706 H   0  0  0  0  0  0  0  0  0  0  0  0
    4.6976    0.5563   -0.2733 H   0  0  0  0  0  0  0  0  0  0  0  0
    5.3405   -2.4039   -0.7964 H   0  0  0  0  0  0  0  0  0  0  0  0
    6.1772   -1.3191    0.3532 H   0  0  0  0  0  0  0  0  0  0  0  0
    5.9611   -0.9362   -2.7130 H   0  0  0  0  0  0  0  0  0  0  0  0
    7.3812   -1.6139   -1.8803 H   0  0  0  0  0  0  0  0  0  0  0  0
    8.6233   -1.2052    0.0073 H   0  0  0  0  0  0  0  0  0  0  0  0
   10.1780   -0.5767    1.7902 H   0  0  0  0  0  0  0  0  0  0  0  0
    9.2955    3.5758    1.1468 H   0  0  0  0  0  0  0  0  0  0  0  0
    7.7188    2.9800   -0.6394 H   0  0  0  0  0  0  0  0  0  0  0  0
    3.4353    0.3737    2.1923 H   0  0  0  0  0  0  0  0  0  0  0  0
    2.7178    1.0262    0.6936 H   0  0  0  0  0  0  0  0  0  0  0  0
    0.9828    0.5597    2.4066 H   0  0  0  0  0  0  0  0  0  0  0  0
    1.5080   -1.1389    2.5116 H   0  0  0  0  0  0  0  0  0  0  0  0
   -1.7289    0.7628    1.4858 H   0  0  0  0  0  0  0  0  0  0  0  0
   -2.6842    2.8316    0.5953 H   0  0  0  0  0  0  0  0  0  0  0  0
    0.5230    3.1173   -2.2469 H   0  0  0  0  0  0  0  0  0  0  0  0
    1.5034    1.0712   -1.3810 H   0  0  0  0  0  0  0  0  0  0  0  0
  1  2  1  0
  2  3  1  0
  3  4  1  0
  4  5  1  0
  5  6  1  0
  6  7  1  0
  7  8  1  0
  8  9  1  0
  9 10  1  0
 10 11  2  0
 10 12  1  0
 12 13  1  0
 13 14  1  0
 14 15  1  0
 15 16  1  0
 16 17  1  0
 17 18  1  0
 18 19  1  0
 19 20  1  0
 20 21  2  0
 20 22  1  0
 22 23  2  0
 23 24  1  0
 24 25  2  0
 25 26  1  0
 25 27  1  0
 27 28  2  0
 28 22  1  0
 16 29  1  0
 29 30  1  0
 30 13  1  0
 13 31  1  0
 31 32  2  0
 32 33  1  0
 33 34  2  0
 34 35  1  0
 34 36  1  0
 36 37  2  0
 37 31  1  0
  1 38  1  0
  1 39  1  0
  1 40  1  0
  2 41  1  0
  2 42  1  0
  3 43  1  0
  3 44  1  0
  4 45  1  0
  4 46  1  0
  5 47  1  0
  5 48  1  0
  6 49  1  0
  6 50  1  0
  7 51  1  0
  7 52  1  0
  8 53  1  0
  8 54  1  0
  9 55  1  0
  9 56  1  0
 14 57  1  0
 14 58  1  0
 15 59  1  0
 15 60  1  0
 17 61  1  0
 17 62  1  0
 18 63  1  0
 18 64  1  0
 19 65  1  0
 19 66  1  0
 23 67  1  0
 24 68  1  0
 27 69  1  0
 28 70  1  0
 29 71  1  0
 29 72  1  0
 30 73  1  0
 30 74  1  0
 32 75  1  0
 33 76  1  0
 36 77  1  0
 37 78  1  0
M  END
> <ID>
HT1018

> <Class>
1.0

> <Clusters>
124

> <Fold>
4

$$$$