
     RDKit          3D

 78 79  0  0  0  0  0  0  0  0999 V2000
    6.2144   -2.8102   -0.1944 C   0  0  0  0  0  0  0  0  0  0  0  0
    5.8221   -1.7305    0.8353 C   0  0  0  0  0  0  0  0  0  0  0  0
    4.9818   -0.5670    0.3389 N   0  0  0  0  0  0  0  0  0  0  0  0
    5.1592   -0.3234   -1.1406 C   0  0  0  0  0  0  0  0  0  0  0  0
    4.2499    0.7677   -1.7448 C   0  0  0  0  0  0  0  0  0  0  0  0
    3.5341   -0.8530    0.6551 C   0  0  0  0  0  0  0  0  0  0  0  0
    2.9178   -2.1194    0.0239 C   0  0  0  0  0  0  0  0  0  0  0  0
    1.4890   -2.1741    0.3439 N   0  0  0  0  0  0  0  0  0  0  0  0
    0.4911   -1.5787   -0.4995 C   0  0  0  0  0  0  0  0  0  0  0  0
    0.8338   -1.0091   -1.5687 O   0  0  0  0  0  0  0  0  0  0  0  0
   -0.9388   -1.6303   -0.1331 C   0  0  0  0  0  0  0  0  0  0  0  0
   -1.2887   -2.1404    0.9652 O   0  0  0  0  0  0  0  0  0  0  0  0
   -1.9310   -1.1133   -1.0323 N   0  0  0  0  0  0  0  0  0  0  0  0
   -3.3469   -1.4653   -0.9248 C   0  0  0  0  0  0  0  0  0  0  0  0
   -4.1023   -0.3955   -0.1108 C   0  0  0  0  0  0  0  0  0  0  0  0
   -5.5770   -0.6451    0.0971 N   0  0  0  0  0  0  0  0  0  0  0  0
   -5.7412   -1.8601    0.9728 C   0  0  0  0  0  0  0  0  0  0  0  0
   -7.1805   -2.1080    1.4855 C   0  0  0  0  0  0  0  0  0  0  0  0
   -6.2918   -0.7861   -1.2317 C   0  0  0  0  0  0  0  0  0  0  0  0
   -6.4591   -2.2087   -1.8090 C   0  0  0  0  0  0  0  0  0  0  0  0
   -6.1603    0.5324    0.8554 C   0  0  0  0  0  0  0  0  0  0  0  0
   -5.7270    1.9264    0.3943 C   0  0  0  0  0  0  0  0  0  0  0  0
   -6.1539    2.4157   -0.8541 C   0  0  0  0  0  0  0  0  0  0  0  0
   -5.7967    3.6909   -1.2888 C   0  0  0  0  0  0  0  0  0  0  0  0
   -5.0498    4.5279   -0.4568 C   0  0  0  0  0  0  0  0  0  0  0  0
   -4.6398    4.0819    0.8028 C   0  0  0  0  0  0  0  0  0  0  0  0
   -4.9533    2.7830    1.2281 C   0  0  0  0  0  0  0  0  0  0  0  0
   -4.3902    2.3071    2.8290 Cl  0  0  0  0  0  0  0  0  0  0  0  0
    5.3652    0.6612    1.1542 C   0  0  0  0  0  0  0  0  0  0  0  0
    6.4484    1.5810    0.5634 C   0  0  0  0  0  0  0  0  0  0  0  0
    7.7765    1.1321    0.4340 C   0  0  0  0  0  0  0  0  0  0  0  0
    8.7629    1.9396   -0.1450 C   0  0  0  0  0  0  0  0  0  0  0  0
    8.4521    3.2170   -0.5884 C   0  0  0  0  0  0  0  0  0  0  0  0
    7.1656    3.7237   -0.3902 C   0  0  0  0  0  0  0  0  0  0  0  0
    6.1724    2.9355    0.2070 C   0  0  0  0  0  0  0  0  0  0  0  0
    4.6256    3.7253    0.5311 Cl  0  0  0  0  0  0  0  0  0  0  0  0
    6.9336   -2.3975   -0.9318 H   0  0  0  0  0  0  0  0  0  0  0  0
    6.7220   -3.6467    0.3323 H   0  0  0  0  0  0  0  0  0  0  0  0
    5.3416   -3.2297   -0.7282 H   0  0  0  0  0  0  0  0  0  0  0  0
    5.3281   -2.2456    1.6907 H   0  0  0  0  0  0  0  0  0  0  0  0
    6.7738   -1.3934    1.2785 H   0  0  0  0  0  0  0  0  0  0  0  0
    6.2161   -0.0733   -1.3733 H   0  0  0  0  0  0  0  0  0  0  0  0
    4.9638   -1.2400   -1.7320 H   0  0  0  0  0  0  0  0  0  0  0  0
    4.7874    1.2725   -2.5789 H   0  0  0  0  0  0  0  0  0  0  0  0
    3.9646    1.5390   -1.0087 H   0  0  0  0  0  0  0  0  0  0  0  0
    3.3280    0.3028   -2.1545 H   0  0  0  0  0  0  0  0  0  0  0  0
    2.8870    0.0066    0.3658 H   0  0  0  0  0  0  0  0  0  0  0  0
    3.4037   -0.9522    1.7553 H   0  0  0  0  0  0  0  0  0  0  0  0
    3.3931   -3.0281    0.4462 H   0  0  0  0  0  0  0  0  0  0  0  0
    3.0535   -2.1425   -1.0738 H   0  0  0  0  0  0  0  0  0  0  0  0
    1.2055   -2.6214    1.2461 H   0  0  0  0  0  0  0  0  0  0  0  0
   -1.6218   -0.5796   -1.8788 H   0  0  0  0  0  0  0  0  0  0  0  0
   -3.7454   -1.4948   -1.9610 H   0  0  0  0  0  0  0  0  0  0  0  0
   -3.4490   -2.4771   -0.4830 H   0  0  0  0  0  0  0  0  0  0  0  0
   -3.9444    0.5519   -0.6667 H   0  0  0  0  0  0  0  0  0  0  0  0
   -3.5873   -0.2662    0.8700 H   0  0  0  0  0  0  0  0  0  0  0  0
   -5.4038   -2.7807    0.4646 H   0  0  0  0  0  0  0  0  0  0  0  0
   -5.0880   -1.7760    1.8736 H   0  0  0  0  0  0  0  0  0  0  0  0
   -7.9465   -1.8706    0.7143 H   0  0  0  0  0  0  0  0  0  0  0  0
   -7.3755   -1.4910    2.3930 H   0  0  0  0  0  0  0  0  0  0  0  0
   -7.2962   -3.1722    1.7772 H   0  0  0  0  0  0  0  0  0  0  0  0
   -7.3281   -0.3939   -1.1729 H   0  0  0  0  0  0  0  0  0  0  0  0
   -5.7872   -0.1752   -2.0133 H   0  0  0  0  0  0  0  0  0  0  0  0
   -7.1877   -2.8037   -1.2208 H   0  0  0  0  0  0  0  0  0  0  0  0
   -5.5211   -2.7782   -1.8702 H   0  0  0  0  0  0  0  0  0  0  0  0
   -6.8732   -2.1326   -2.8366 H   0  0  0  0  0  0  0  0  0  0  0  0
   -5.9427    0.4288    1.9291 H   0  0  0  0  0  0  0  0  0  0  0  0
   -7.2696    0.5176    0.8130 H   0  0  0  0  0  0  0  0  0  0  0  0
   -6.8072    1.8388   -1.4817 H   0  0  0  0  0  0  0  0  0  0  0  0
   -6.1265    4.0485   -2.2576 H   0  0  0  0  0  0  0  0  0  0  0  0
   -4.7966    5.5285   -0.7849 H   0  0  0  0  0  0  0  0  0  0  0  0
   -4.0889    4.7563    1.4536 H   0  0  0  0  0  0  0  0  0  0  0  0
    5.6884    0.3729    2.1846 H   0  0  0  0  0  0  0  0  0  0  0  0
    4.4671    1.2796    1.3665 H   0  0  0  0  0  0  0  0  0  0  0  0
    8.0788    0.1644    0.7849 H   0  0  0  0  0  0  0  0  0  0  0  0
    9.7642    1.5552   -0.2468 H   0  0  0  0  0  0  0  0  0  0  0  0
    9.2144    3.8322   -1.0451 H   0  0  0  0  0  0  0  0  0  0  0  0
    6.9386    4.7364   -0.6949 H   0  0  0  0  0  0  0  0  0  0  0  0
  1  2  1  0
  2  3  1  0
  3  4  1  0
  4  5  1  0
  3  6  1  0
  6  7  1  0
  7  8  1  0
  8  9  1  0
  9 10  2  0
  9 11  1  0
 11 12  2  0
 11 13  1  0
 13 14  1  0
 14 15  1  0
 15 16  1  0
 16 17  1  0
 17 18  1  0
 16 19  1  0
 19 20  1  0
 16 21  1  0
 21 22  1  0
 22 23  2  0
 23 24  1  0
 24 25  2  0
 25 26  1  0
 26 27  2  0
 27 22  1  0
 27 28  1  0
  3 29  1  0
 29 30  1  0
 30 31  2  0
 31 32  1  0
 32 33  2  0
 33 34  1  0
 34 35  2  0
 35 30  1  0
 35 36  1  0
  1 37  1  0
  1 38  1  0
  1 39  1  0
  2 40  1  0
  2 41  1  0
  4 42  1  0
  4 43  1  0
  5 44  1  0
  5 45  1  0
  5 46  1  0
  6 47  1  0
  6 48  1  0
  7 49  1  0
  7 50  1  0
  8 51  1  0
 13 52  1  0
 14 53  1  0
 14 54  1  0
 15 55  1  0
 15 56  1  0
 17 57  1  0
 17 58  1  0
 18 59  1  0
 18 60  1  0
 18 61  1  0
 19 62  1  0
 19 63  1  0
 20 64  1  0
 20 65  1  0
 20 66  1  0
 21 67  1  0
 21 68  1  0
 23 69  1  0
 24 70  1  0
 25 71  1  0
 26 72  1  0
 29 73  1  0
 29 74  1  0
 31 75  1  0
 32 76  1  0
 33 77  1  0
 34 78  1  0
M  CHG  2   3   1  16   1
M  END
> <ID>
HT0123

> <Class>
1.0

> <Clusters>
165

> <Fold>
4

$$$$