
     RDKit          3D

 15 15  0  0  0  0  0  0  0  0999 V2000
    1.7964    0.5463   -0.4757 C   0  0  0  0  0  0  0  0  0  0  0  0
    1.2245    0.3244    0.9249 C   0  0  2  0  0  0  0  0  0  0  0  0
    0.9700   -1.0397    1.1747 O   0  0  0  0  0  0  0  0  0  0  0  0
   -0.1591   -0.1973    1.1036 C   0  0  2  0  0  0  0  0  0  0  0  0
   -1.1800   -0.5823   -0.3639 P   0  0  0  0  0  0  0  0  0  0  0  0
   -0.5652   -1.7160   -1.1538 O   0  0  0  0  0  0  0  0  0  0  0  0
   -1.3116    0.7866   -1.3499 O   0  0  0  0  0  0  0  0  0  0  0  0
   -2.7227   -1.0441    0.1554 O   0  0  0  0  0  0  0  0  0  0  0  0
    2.8881    0.7273   -0.3935 H   0  0  0  0  0  0  0  0  0  0  0  0
    1.6464   -0.3310   -1.1386 H   0  0  0  0  0  0  0  0  0  0  0  0
    1.3267    1.4425   -0.9309 H   0  0  0  0  0  0  0  0  0  0  0  0
    1.6922    0.8255    1.7981 H   0  0  0  0  0  0  0  0  0  0  0  0
   -0.6399   -0.0693    2.0954 H   0  0  0  0  0  0  0  0  0  0  0  0
   -1.7177    1.4777   -0.7684 H   0  0  0  0  0  0  0  0  0  0  0  0
   -3.2483   -1.1506   -0.6773 H   0  0  0  0  0  0  0  0  0  0  0  0
  2  1  1  0
  2  3  1  0
  3  4  1  0
  4  2  1  0
  4  5  1  0
  5  6  2  0
  5  7  1  0
  5  8  1  0
  1  9  1  0
  1 10  1  0
  1 11  1  0
  2 12  1  1
  4 13  1  1
  7 14  1  0
  8 15  1  0
M  END
> <ID>
HT0937

> <Class>
1.0

> <Clusters>
188

> <Fold>
4

$$$$