
     RDKit          3D

 42 45  0  0  0  0  0  0  0  0999 V2000
    4.5654   -1.9150    1.5178 C   0  0  0  0  0  0  0  0  0  0  0  0
    3.5568   -0.9262    1.3406 O   0  0  0  0  0  0  0  0  0  0  0  0
    2.3007   -1.1762    0.7702 C   0  0  0  0  0  0  0  0  0  0  0  0
    1.9030   -2.4505    0.3151 C   0  0  0  0  0  0  0  0  0  0  0  0
    0.6175   -2.6424   -0.2215 C   0  0  0  0  0  0  0  0  0  0  0  0
   -0.2837   -1.5626   -0.3364 C   0  0  0  0  0  0  0  0  0  0  0  0
   -1.6832   -1.7831   -0.8408 C   0  0  0  0  0  0  0  0  0  0  0  0
   -2.6626   -1.4031    0.2027 N   0  0  0  0  0  0  0  0  0  0  0  0
   -3.8813   -2.2213    0.0715 C   0  0  0  0  0  0  0  0  0  0  0  0
   -3.0167    0.0331    0.1270 C   0  0  0  0  0  0  0  0  0  0  0  0
   -1.9467    0.9342    0.7750 C   0  0  0  0  0  0  0  0  0  0  0  0
   -0.5769    1.0198    0.0494 C   0  0  1  0  0  0  0  0  0  0  0  0
   -0.7278    1.4683   -1.4061 C   0  0  0  0  0  0  0  0  0  0  0  0
    0.0379    2.4065   -1.9836 C   0  0  0  0  0  0  0  0  0  0  0  0
    1.1456    3.0988   -1.2514 C   0  0  2  0  0  0  0  0  0  0  0  0
    2.3224    2.3443   -1.3756 O   0  0  0  0  0  0  0  0  0  0  0  0
    0.7612    3.2780    0.2186 C   0  0  0  0  0  0  0  0  0  0  0  0
    0.4083    1.9389    0.8816 C   0  0  2  0  0  0  0  0  0  0  0  0
    1.5827    1.1592    1.0899 O   0  0  0  0  0  0  0  0  0  0  0  0
    1.3892   -0.1292    0.6478 C   0  0  0  0  0  0  0  0  0  0  0  0
    0.1498   -0.2956    0.0854 C   0  0  0  0  0  0  0  0  0  0  0  0
    5.4538   -1.4467    1.9887 H   0  0  0  0  0  0  0  0  0  0  0  0
    4.1945   -2.7236    2.1825 H   0  0  0  0  0  0  0  0  0  0  0  0
    4.8637   -2.3362    0.5345 H   0  0  0  0  0  0  0  0  0  0  0  0
    2.5681   -3.3001    0.3877 H   0  0  0  0  0  0  0  0  0  0  0  0
    0.3265   -3.6365   -0.5370 H   0  0  0  0  0  0  0  0  0  0  0  0
   -1.8441   -1.2285   -1.7886 H   0  0  0  0  0  0  0  0  0  0  0  0
   -1.7926   -2.8573   -1.1151 H   0  0  0  0  0  0  0  0  0  0  0  0
   -3.6363   -3.2990    0.1888 H   0  0  0  0  0  0  0  0  0  0  0  0
   -4.6038   -1.9737    0.8789 H   0  0  0  0  0  0  0  0  0  0  0  0
   -4.3664   -2.0602   -0.9173 H   0  0  0  0  0  0  0  0  0  0  0  0
   -3.9485    0.2204    0.7077 H   0  0  0  0  0  0  0  0  0  0  0  0
   -3.2553    0.3464   -0.9111 H   0  0  0  0  0  0  0  0  0  0  0  0
   -2.3653    1.9629    0.8403 H   0  0  0  0  0  0  0  0  0  0  0  0
   -1.7917    0.5829    1.8198 H   0  0  0  0  0  0  0  0  0  0  0  0
   -1.4628    0.9920   -2.0407 H   0  0  0  0  0  0  0  0  0  0  0  0
   -0.1306    2.6567   -3.0271 H   0  0  0  0  0  0  0  0  0  0  0  0
    1.2937    4.1019   -1.7134 H   0  0  0  0  0  0  0  0  0  0  0  0
    3.0706    2.9342   -1.0965 H   0  0  0  0  0  0  0  0  0  0  0  0
    1.5958    3.7616    0.7714 H   0  0  0  0  0  0  0  0  0  0  0  0
   -0.1191    3.9552    0.2839 H   0  0  0  0  0  0  0  0  0  0  0  0
   -0.0118    2.1715    1.8858 H   0  0  0  0  0  0  0  0  0  0  0  0
  1  2  1  0
  2  3  1  0
  3  4  2  0
  4  5  1  0
  5  6  2  0
  6  7  1  0
  7  8  1  0
  8  9  1  0
  8 10  1  0
 10 11  1  0
 12 11  1  0
 12 13  1  6
 13 14  2  0
 14 15  1  0
 15 16  1  0
 15 17  1  0
 18 17  1  0
 18 12  1  0
 18 19  1  0
 19 20  1  0
 20  3  1  0
 20 21  2  0
 21  6  1  0
 21 12  1  0
  1 22  1  0
  1 23  1  0
  1 24  1  0
  4 25  1  0
  5 26  1  0
  7 27  1  0
  7 28  1  0
  9 29  1  0
  9 30  1  0
  9 31  1  0
 10 32  1  0
 10 33  1  0
 11 34  1  0
 11 35  1  0
 13 36  1  0
 14 37  1  0
 15 38  1  6
 16 39  1  0
 17 40  1  0
 17 41  1  0
 18 42  1  1
M  END
> <ID>
HT0959

> <Class>
1.0

> <Clusters>
63

> <Fold>
4

$$$$