
     RDKit          3D

 49 51  0  0  0  0  0  0  0  0999 V2000
   -3.1076    1.7465   -1.0196 O   0  0  0  0  0  0  0  0  0  0  0  0
   -3.2702    0.4800   -0.4160 C   0  0  0  0  0  0  0  0  0  0  0  0
   -2.4425    0.4230    0.8966 C   0  0  0  0  0  0  0  0  0  0  0  0
   -0.9445    0.5679    0.6031 C   0  0  0  0  0  0  0  0  0  0  0  0
   -0.4931   -0.5072   -0.3079 N   0  0  0  0  0  0  0  0  0  0  0  0
    0.9705   -0.4403   -0.5157 C   0  0  0  0  0  0  0  0  0  0  0  0
    1.7037   -1.2119    0.5937 C   0  0  0  0  0  0  0  0  0  0  0  0
    3.2291   -1.2185    0.3892 C   0  0  0  0  0  0  0  0  0  0  0  0
    3.9013    0.1036    0.6921 C   0  0  0  0  0  0  0  0  0  0  0  0
    3.2173    1.0597    1.1521 O   0  0  0  0  0  0  0  0  0  0  0  0
    5.3612    0.2973    0.4726 C   0  0  0  0  0  0  0  0  0  0  0  0
    5.9441    1.5623    0.6886 C   0  0  0  0  0  0  0  0  0  0  0  0
    7.3133    1.7597    0.4864 C   0  0  0  0  0  0  0  0  0  0  0  0
    8.1201    0.7003    0.0674 C   0  0  0  0  0  0  0  0  0  0  0  0
    9.4477    0.8944   -0.1278 F   0  0  0  0  0  0  0  0  0  0  0  0
    7.5586   -0.5593   -0.1497 C   0  0  0  0  0  0  0  0  0  0  0  0
    6.1898   -0.7633    0.0506 C   0  0  0  0  0  0  0  0  0  0  0  0
   -1.2044   -0.4099   -1.6001 C   0  0  0  0  0  0  0  0  0  0  0  0
   -2.7175   -0.5763   -1.3978 C   0  0  0  0  0  0  0  0  0  0  0  0
   -4.7556    0.1993   -0.1408 C   0  0  0  0  0  0  0  0  0  0  0  0
   -5.7633    1.1087   -0.5342 C   0  0  0  0  0  0  0  0  0  0  0  0
   -7.1112    0.8358   -0.2828 C   0  0  0  0  0  0  0  0  0  0  0  0
   -7.4817   -0.3484    0.3564 C   0  0  0  0  0  0  0  0  0  0  0  0
   -9.1744   -0.6869    0.6680 Cl  0  0  0  0  0  0  0  0  0  0  0  0
   -6.5026   -1.2658    0.7405 C   0  0  0  0  0  0  0  0  0  0  0  0
   -5.1534   -0.9993    0.4923 C   0  0  0  0  0  0  0  0  0  0  0  0
   -3.3085    2.4431   -0.3402 H   0  0  0  0  0  0  0  0  0  0  0  0
   -2.5935   -0.5434    1.4224 H   0  0  0  0  0  0  0  0  0  0  0  0
   -2.7637    1.2314    1.5893 H   0  0  0  0  0  0  0  0  0  0  0  0
   -0.4045    0.5057    1.5713 H   0  0  0  0  0  0  0  0  0  0  0  0
   -0.7398    1.5727    0.1675 H   0  0  0  0  0  0  0  0  0  0  0  0
    1.3214    0.6148   -0.5641 H   0  0  0  0  0  0  0  0  0  0  0  0
    1.2524   -0.9144   -1.4834 H   0  0  0  0  0  0  0  0  0  0  0  0
    1.4642   -0.7985    1.5958 H   0  0  0  0  0  0  0  0  0  0  0  0
    1.3453   -2.2644    0.5793 H   0  0  0  0  0  0  0  0  0  0  0  0
    3.6638   -1.9886    1.0622 H   0  0  0  0  0  0  0  0  0  0  0  0
    3.4542   -1.5158   -0.6580 H   0  0  0  0  0  0  0  0  0  0  0  0
    5.3424    2.4024    1.0120 H   0  0  0  0  0  0  0  0  0  0  0  0
    7.7480    2.7366    0.6550 H   0  0  0  0  0  0  0  0  0  0  0  0
    8.1844   -1.3812   -0.4732 H   0  0  0  0  0  0  0  0  0  0  0  0
    5.7911   -1.7533   -0.1231 H   0  0  0  0  0  0  0  0  0  0  0  0
   -0.8691   -1.2251   -2.2790 H   0  0  0  0  0  0  0  0  0  0  0  0
   -0.9872    0.5618   -2.0998 H   0  0  0  0  0  0  0  0  0  0  0  0
   -2.9049   -1.6042   -1.0185 H   0  0  0  0  0  0  0  0  0  0  0  0
   -3.2299   -0.4798   -2.3803 H   0  0  0  0  0  0  0  0  0  0  0  0
   -5.5229    2.0310   -1.0449 H   0  0  0  0  0  0  0  0  0  0  0  0
   -7.8680    1.5465   -0.5900 H   0  0  0  0  0  0  0  0  0  0  0  0
   -6.7855   -2.1894    1.2295 H   0  0  0  0  0  0  0  0  0  0  0  0
   -4.4240   -1.7390    0.7926 H   0  0  0  0  0  0  0  0  0  0  0  0
  1  2  1  0
  2  3  1  0
  3  4  1  0
  4  5  1  0
  5  6  1  0
  6  7  1  0
  7  8  1  0
  8  9  1  0
  9 10  2  0
  9 11  1  0
 11 12  2  0
 12 13  1  0
 13 14  2  0
 14 15  1  0
 14 16  1  0
 16 17  2  0
 17 11  1  0
  5 18  1  0
 18 19  1  0
 19  2  1  0
  2 20  1  0
 20 21  2  0
 21 22  1  0
 22 23  2  0
 23 24  1  0
 23 25  1  0
 25 26  2  0
 26 20  1  0
  1 27  1  0
  3 28  1  0
  3 29  1  0
  4 30  1  0
  4 31  1  0
  6 32  1  0
  6 33  1  0
  7 34  1  0
  7 35  1  0
  8 36  1  0
  8 37  1  0
 12 38  1  0
 13 39  1  0
 16 40  1  0
 17 41  1  0
 18 42  1  0
 18 43  1  0
 19 44  1  0
 19 45  1  0
 21 46  1  0
 22 47  1  0
 25 48  1  0
 26 49  1  0
M  END
> <ID>
HT1017

> <Class>
1.0

> <Clusters>
124

> <Fold>
4

$$$$