
     RDKit          3D

 85 87  0  0  0  0  0  0  0  0999 V2000
    0.8223    5.7174    1.1896 C   0  0  0  0  0  0  0  0  0  0  0  0
    0.7875    4.2138    0.9410 C   0  0  0  0  0  0  0  0  0  0  0  0
   -0.2310    3.8669   -0.0977 C   0  0  0  0  0  0  0  0  0  0  0  0
   -0.0892    4.2883   -1.2786 O   0  0  0  0  0  0  0  0  0  0  0  0
   -1.3125    3.0461    0.2479 O   0  0  0  0  0  0  0  0  0  0  0  0
   -2.3242    2.6179   -0.6695 C   0  0  1  0  0  0  0  0  0  0  0  0
   -2.7078    1.3024   -0.3225 O   0  0  0  0  0  0  0  0  0  0  0  0
   -1.7282    0.1582   -1.1322 P   0  0  0  0  0  0  0  0  0  0  0  0
   -1.9706    0.2379   -2.6234 O   0  0  0  0  0  0  0  0  0  0  0  0
   -2.2059   -1.4948   -0.5323 C   0  0  0  0  0  0  0  0  0  0  0  0
   -3.7132   -1.7094   -0.6818 C   0  0  0  0  0  0  0  0  0  0  0  0
   -4.1242   -3.0862   -0.1481 C   0  0  0  0  0  0  0  0  0  0  0  0
   -5.6359   -3.3043   -0.2886 C   0  0  0  0  0  0  0  0  0  0  0  0
   -6.0449   -4.6328    0.2942 C   0  0  0  0  0  0  0  0  0  0  0  0
   -5.6812   -5.8294   -0.3477 C   0  0  0  0  0  0  0  0  0  0  0  0
   -6.0577   -7.0628    0.1930 C   0  0  0  0  0  0  0  0  0  0  0  0
   -6.8018   -7.1115    1.3748 C   0  0  0  0  0  0  0  0  0  0  0  0
   -7.1729   -5.9269    2.0165 C   0  0  0  0  0  0  0  0  0  0  0  0
   -6.7985   -4.6909    1.4794 C   0  0  0  0  0  0  0  0  0  0  0  0
    0.0426    0.4373   -0.7697 C   0  0  0  0  0  0  0  0  0  0  0  0
    0.9686   -0.5678   -1.4044 C   0  0  0  0  0  0  0  0  0  0  0  0
    0.5292   -1.4077   -2.2368 O   0  0  0  0  0  0  0  0  0  0  0  0
    2.3730   -0.5542   -1.0873 N   0  0  0  0  0  0  0  0  0  0  0  0
    2.9870    0.4052   -0.1826 C   0  0  0  0  0  0  0  0  0  0  0  0
    4.4692    0.0146   -0.1036 C   0  0  1  0  0  0  0  0  0  0  0  0
    4.7081   -0.8215   -1.3708 C   0  0  0  0  0  0  0  0  0  0  0  0
    3.3489   -1.4256   -1.7262 C   0  0  1  0  0  0  0  0  0  0  0  0
    3.2238   -2.8365   -1.2156 C   0  0  0  0  0  0  0  0  0  0  0  0
    3.8735   -3.7613   -1.7730 O   0  0  0  0  0  0  0  0  0  0  0  0
    2.4010   -3.1281   -0.1300 O   0  0  0  0  0  0  0  0  0  0  0  0
    5.4212    1.2439    0.0234 C   0  0  0  0  0  0  0  0  0  0  0  0
    5.1394    2.0775    1.3133 C   0  0  0  0  0  0  0  0  0  0  0  0
    6.2077    1.9236    2.4132 C   0  0  0  0  0  0  0  0  0  0  0  0
    6.7223    0.4842    2.4958 C   0  0  0  0  0  0  0  0  0  0  0  0
    7.3645    0.0188    1.1731 C   0  0  0  0  0  0  0  0  0  0  0  0
    6.9131    0.8394   -0.0502 C   0  0  0  0  0  0  0  0  0  0  0  0
   -3.5665    3.5311   -0.5461 C   0  0  0  0  0  0  0  0  0  0  0  0
   -3.2325    5.0009   -0.8405 C   0  0  0  0  0  0  0  0  0  0  0  0
   -4.6857    3.0571   -1.4867 C   0  0  0  0  0  0  0  0  0  0  0  0
   -0.1781    6.0779    1.5134 H   0  0  0  0  0  0  0  0  0  0  0  0
    1.5595    5.9447    1.9879 H   0  0  0  0  0  0  0  0  0  0  0  0
    1.1241    6.2548    0.2648 H   0  0  0  0  0  0  0  0  0  0  0  0
    0.5397    3.6947    1.8918 H   0  0  0  0  0  0  0  0  0  0  0  0
    1.7877    3.8658    0.6050 H   0  0  0  0  0  0  0  0  0  0  0  0
   -1.9590    2.6853   -1.7224 H   0  0  0  0  0  0  0  0  0  0  0  0
   -1.6587   -2.2675   -1.1106 H   0  0  0  0  0  0  0  0  0  0  0  0
   -1.9152   -1.5775    0.5363 H   0  0  0  0  0  0  0  0  0  0  0  0
   -4.2569   -0.9208   -0.1162 H   0  0  0  0  0  0  0  0  0  0  0  0
   -3.9918   -1.6313   -1.7558 H   0  0  0  0  0  0  0  0  0  0  0  0
   -3.8424   -3.1630    0.9256 H   0  0  0  0  0  0  0  0  0  0  0  0
   -3.5796   -3.8747   -0.7124 H   0  0  0  0  0  0  0  0  0  0  0  0
   -6.1720   -2.4772    0.2268 H   0  0  0  0  0  0  0  0  0  0  0  0
   -5.9268   -3.2715   -1.3613 H   0  0  0  0  0  0  0  0  0  0  0  0
   -5.1088   -5.8061   -1.2668 H   0  0  0  0  0  0  0  0  0  0  0  0
   -5.7730   -7.9812   -0.3046 H   0  0  0  0  0  0  0  0  0  0  0  0
   -7.0916   -8.0669    1.7929 H   0  0  0  0  0  0  0  0  0  0  0  0
   -7.7497   -5.9667    2.9319 H   0  0  0  0  0  0  0  0  0  0  0  0
   -7.0916   -3.7824    1.9908 H   0  0  0  0  0  0  0  0  0  0  0  0
    0.3318    1.4390   -1.1406 H   0  0  0  0  0  0  0  0  0  0  0  0
    0.1673    0.4097    0.3324 H   0  0  0  0  0  0  0  0  0  0  0  0
    2.8547    1.4311   -0.5917 H   0  0  0  0  0  0  0  0  0  0  0  0
    2.5178    0.3367    0.8225 H   0  0  0  0  0  0  0  0  0  0  0  0
    4.6010   -0.6549    0.7748 H   0  0  0  0  0  0  0  0  0  0  0  0
    5.0287   -0.1616   -2.2076 H   0  0  0  0  0  0  0  0  0  0  0  0
    5.4940   -1.5924   -1.2064 H   0  0  0  0  0  0  0  0  0  0  0  0
    3.2023   -1.4142   -2.8294 H   0  0  0  0  0  0  0  0  0  0  0  0
    2.3105   -4.0765    0.2128 H   0  0  0  0  0  0  0  0  0  0  0  0
    5.2252    1.9049   -0.8510 H   0  0  0  0  0  0  0  0  0  0  0  0
    5.0818    3.1547    1.0431 H   0  0  0  0  0  0  0  0  0  0  0  0
    4.1529    1.8179    1.7512 H   0  0  0  0  0  0  0  0  0  0  0  0
    7.0611    2.6060    2.2053 H   0  0  0  0  0  0  0  0  0  0  0  0
    5.7746    2.2196    3.3932 H   0  0  0  0  0  0  0  0  0  0  0  0
    5.8753   -0.1861    2.7584 H   0  0  0  0  0  0  0  0  0  0  0  0
    7.4680    0.4070    3.3164 H   0  0  0  0  0  0  0  0  0  0  0  0
    7.1195   -1.0529    1.0089 H   0  0  0  0  0  0  0  0  0  0  0  0
    8.4708    0.0909    1.2560 H   0  0  0  0  0  0  0  0  0  0  0  0
    7.5254    1.7672   -0.1031 H   0  0  0  0  0  0  0  0  0  0  0  0
    7.1331    0.2742   -0.9803 H   0  0  0  0  0  0  0  0  0  0  0  0
   -3.9464    3.4701    0.4979 H   0  0  0  0  0  0  0  0  0  0  0  0
   -2.5290    5.4009   -0.0813 H   0  0  0  0  0  0  0  0  0  0  0  0
   -4.1529    5.6211   -0.7947 H   0  0  0  0  0  0  0  0  0  0  0  0
   -2.7827    5.1075   -1.8507 H   0  0  0  0  0  0  0  0  0  0  0  0
   -4.9889    2.0170   -1.2425 H   0  0  0  0  0  0  0  0  0  0  0  0
   -5.5818    3.7036   -1.3758 H   0  0  0  0  0  0  0  0  0  0  0  0
   -4.3483    3.0920   -2.5443 H   0  0  0  0  0  0  0  0  0  0  0  0
  1  2  1  0
  2  3  1  0
  3  4  2  0
  3  5  1  0
  5  6  1  0
  6  7  1  0
  7  8  1  0
  8  9  2  0
  8 10  1  0
 10 11  1  0
 11 12  1  0
 12 13  1  0
 13 14  1  0
 14 15  2  0
 15 16  1  0
 16 17  2  0
 17 18  1  0
 18 19  2  0
 19 14  1  0
  8 20  1  0
 20 21  1  0
 21 22  2  0
 21 23  1  0
 23 24  1  0
 24 25  1  0
 25 26  1  0
 26 27  1  0
 27 23  1  0
 27 28  1  0
 28 29  2  0
 28 30  1  0
 25 31  1  0
 31 32  1  0
 32 33  1  0
 33 34  1  0
 34 35  1  0
 35 36  1  0
 36 31  1  0
  6 37  1  0
 37 38  1  0
 37 39  1  0
  1 40  1  0
  1 41  1  0
  1 42  1  0
  2 43  1  0
  2 44  1  0
  6 45  1  6
 10 46  1  0
 10 47  1  0
 11 48  1  0
 11 49  1  0
 12 50  1  0
 12 51  1  0
 13 52  1  0
 13 53  1  0
 15 54  1  0
 16 55  1  0
 17 56  1  0
 18 57  1  0
 19 58  1  0
 20 59  1  0
 20 60  1  0
 24 61  1  0
 24 62  1  0
 25 63  1  1
 26 64  1  0
 26 65  1  0
 27 66  1  6
 30 67  1  0
 31 68  1  0
 32 69  1  0
 32 70  1  0
 33 71  1  0
 33 72  1  0
 34 73  1  0
 34 74  1  0
 35 75  1  0
 35 76  1  0
 36 77  1  0
 36 78  1  0
 37 79  1  0
 38 80  1  0
 38 81  1  0
 38 82  1  0
 39 83  1  0
 39 84  1  0
 39 85  1  0
M  END
> <ID>
HT0938

> <Class>
1.0

> <Clusters>
233

> <Fold>
4

$$$$