
     RDKit          3D

 29 30  0  0  0  0  0  0  0  0999 V2000
    5.0693   -0.5679   -0.6028 N   0  0  0  0  0  0  0  0  0  0  0  0
    3.6867   -0.4469   -0.2680 C   0  0  0  0  0  0  0  0  0  0  0  0
    2.7397   -0.6968   -1.2061 N   0  0  0  0  0  0  0  0  0  0  0  0
    1.4144   -0.5930   -0.9248 C   0  0  0  0  0  0  0  0  0  0  0  0
    0.5815   -0.8200   -1.8422 O   0  0  0  0  0  0  0  0  0  0  0  0
    0.9992   -0.2387    0.3382 N   0  0  0  0  0  0  0  0  0  0  0  0
    1.9375    0.0388    1.2953 C   0  0  0  0  0  0  0  0  0  0  0  0
    3.2977   -0.0658    1.0136 C   0  0  0  0  0  0  0  0  0  0  0  0
   -0.4290   -0.0886    0.6940 C   0  0  2  0  0  0  0  0  0  0  0  0
   -1.2286   -1.0540    0.0503 O   0  0  0  0  0  0  0  0  0  0  0  0
   -2.5223   -0.4970   -0.0744 C   0  0  2  0  0  0  0  0  0  0  0  0
   -3.1097   -0.8563   -1.4469 C   0  0  0  0  0  0  0  0  0  0  0  0
   -2.2581   -0.4449   -2.4839 O   0  0  0  0  0  0  0  0  0  0  0  0
   -2.4462    1.0267    0.1579 C   0  0  1  0  0  0  0  0  0  0  0  0
   -3.1800    1.4077    1.2991 O   0  0  0  0  0  0  0  0  0  0  0  0
   -0.9640    1.2875    0.3265 C   0  0  0  0  0  0  0  0  0  0  0  0
   -0.6992    2.2135    1.3233 F   0  0  0  0  0  0  0  0  0  0  0  0
   -0.4253    1.7330   -0.8708 F   0  0  0  0  0  0  0  0  0  0  0  0
    5.3540   -0.8511   -1.5666 H   0  0  0  0  0  0  0  0  0  0  0  0
    5.8124   -0.3768    0.1059 H   0  0  0  0  0  0  0  0  0  0  0  0
    1.6382    0.3453    2.2909 H   0  0  0  0  0  0  0  0  0  0  0  0
    4.0325    0.1492    1.7792 H   0  0  0  0  0  0  0  0  0  0  0  0
   -0.5576   -0.2407    1.7923 H   0  0  0  0  0  0  0  0  0  0  0  0
   -3.1759   -0.9657    0.6953 H   0  0  0  0  0  0  0  0  0  0  0  0
   -4.1267   -0.4127   -1.5586 H   0  0  0  0  0  0  0  0  0  0  0  0
   -3.2246   -1.9594   -1.5079 H   0  0  0  0  0  0  0  0  0  0  0  0
   -2.5575    0.4575   -2.7676 H   0  0  0  0  0  0  0  0  0  0  0  0
   -2.8385    1.6065   -0.7058 H   0  0  0  0  0  0  0  0  0  0  0  0
   -2.8201    0.9104    2.0803 H   0  0  0  0  0  0  0  0  0  0  0  0
  1  2  1  0
  2  3  2  0
  3  4  1  0
  4  5  2  0
  4  6  1  0
  6  7  1  0
  7  8  2  0
  8  2  1  0
  9  6  1  0
  9 10  1  0
 10 11  1  0
 11 12  1  0
 12 13  1  0
 11 14  1  0
 14 15  1  0
 14 16  1  0
 16  9  1  0
 16 17  1  0
 16 18  1  0
  1 19  1  0
  1 20  1  0
  7 21  1  0
  8 22  1  0
  9 23  1  1
 11 24  1  1
 12 25  1  0
 12 26  1  0
 13 27  1  0
 14 28  1  6
 15 29  1  0
M  END
> <ID>
HT0969

> <Class>
1.0

> <Clusters>
144

> <Fold>
4

$$$$