
     RDKit          3D

 40 41  0  0  0  0  0  0  0  0999 V2000
   -2.1677    3.6136    0.8432 C   0  0  0  0  0  0  0  0  0  0  0  0
   -2.8378    2.3444    1.1405 N   0  0  0  0  0  0  0  0  0  0  0  0
   -2.3773    1.2706    0.2477 C   0  0  0  0  0  0  0  0  0  0  0  0
   -1.1546    0.5618    0.8483 C   0  0  0  0  0  0  0  0  0  0  0  0
   -0.6268   -0.5640   -0.0678 C   0  0  0  0  0  0  0  0  0  0  0  0
    0.6116   -1.0729    0.4361 O   0  0  0  0  0  0  0  0  0  0  0  0
    1.8529   -0.4156    0.3925 C   0  0  0  0  0  0  0  0  0  0  0  0
    2.9352   -1.0114    1.0488 C   0  0  0  0  0  0  0  0  0  0  0  0
    4.1949   -0.4062    1.0411 C   0  0  0  0  0  0  0  0  0  0  0  0
    4.3906    0.8213    0.3866 C   0  0  0  0  0  0  0  0  0  0  0  0
    3.3125    1.4056   -0.2993 C   0  0  0  0  0  0  0  0  0  0  0  0
    2.0529    0.7990   -0.2917 C   0  0  0  0  0  0  0  0  0  0  0  0
    5.7599    1.4509    0.3357 C   0  0  0  0  0  0  0  0  0  0  0  0
    5.6612    2.8283    0.2408 F   0  0  0  0  0  0  0  0  0  0  0  0
    6.4805    1.1469    1.4779 F   0  0  0  0  0  0  0  0  0  0  0  0
    6.4407    0.9709   -0.7674 F   0  0  0  0  0  0  0  0  0  0  0  0
   -1.6165   -1.7059   -0.1496 C   0  0  0  0  0  0  0  0  0  0  0  0
   -2.2965   -1.9735   -1.3515 C   0  0  0  0  0  0  0  0  0  0  0  0
   -3.2151   -3.0252   -1.4245 C   0  0  0  0  0  0  0  0  0  0  0  0
   -3.4618   -3.8197   -0.3022 C   0  0  0  0  0  0  0  0  0  0  0  0
   -2.7899   -3.5646    0.8957 C   0  0  0  0  0  0  0  0  0  0  0  0
   -1.8708   -2.5140    0.9742 C   0  0  0  0  0  0  0  0  0  0  0  0
   -2.5311    4.3923    1.5464 H   0  0  0  0  0  0  0  0  0  0  0  0
   -2.3917    3.9473   -0.1941 H   0  0  0  0  0  0  0  0  0  0  0  0
   -1.0697    3.5209    0.9770 H   0  0  0  0  0  0  0  0  0  0  0  0
   -3.8603    2.4907    0.9685 H   0  0  0  0  0  0  0  0  0  0  0  0
   -2.1411    1.6567   -0.7703 H   0  0  0  0  0  0  0  0  0  0  0  0
   -3.1958    0.5258    0.1329 H   0  0  0  0  0  0  0  0  0  0  0  0
   -0.3502    1.3073    1.0088 H   0  0  0  0  0  0  0  0  0  0  0  0
   -1.4183    0.1514    1.8472 H   0  0  0  0  0  0  0  0  0  0  0  0
   -0.4609   -0.1593   -1.0903 H   0  0  0  0  0  0  0  0  0  0  0  0
    2.7994   -1.9528    1.5661 H   0  0  0  0  0  0  0  0  0  0  0  0
    5.0163   -0.8993    1.5457 H   0  0  0  0  0  0  0  0  0  0  0  0
    3.4444    2.3315   -0.8451 H   0  0  0  0  0  0  0  0  0  0  0  0
    1.2491    1.2834   -0.8269 H   0  0  0  0  0  0  0  0  0  0  0  0
   -2.1218   -1.3657   -2.2305 H   0  0  0  0  0  0  0  0  0  0  0  0
   -3.7367   -3.2237   -2.3518 H   0  0  0  0  0  0  0  0  0  0  0  0
   -4.1732   -4.6332   -0.3609 H   0  0  0  0  0  0  0  0  0  0  0  0
   -2.9807   -4.1818    1.7642 H   0  0  0  0  0  0  0  0  0  0  0  0
   -1.3558   -2.3319    1.9092 H   0  0  0  0  0  0  0  0  0  0  0  0
  1  2  1  0
  2  3  1  0
  3  4  1  0
  4  5  1  0
  5  6  1  0
  6  7  1  0
  7  8  2  0
  8  9  1  0
  9 10  2  0
 10 11  1  0
 11 12  2  0
 12  7  1  0
 10 13  1  0
 13 14  1  0
 13 15  1  0
 13 16  1  0
  5 17  1  0
 17 18  2  0
 18 19  1  0
 19 20  2  0
 20 21  1  0
 21 22  2  0
 22 17  1  0
  1 23  1  0
  1 24  1  0
  1 25  1  0
  2 26  1  0
  3 27  1  0
  3 28  1  0
  4 29  1  0
  4 30  1  0
  5 31  1  0
  8 32  1  0
  9 33  1  0
 11 34  1  0
 12 35  1  0
 18 36  1  0
 19 37  1  0
 20 38  1  0
 21 39  1  0
 22 40  1  0
M  END
> <ID>
HT0910

> <Class>
1.0

> <Clusters>
23

> <Fold>
4

$$$$