
     RDKit          3D

 76 79  0  0  0  0  0  0  0  0999 V2000
    9.5940    1.5503    0.9413 C   0  0  0  0  0  0  0  0  0  0  0  0
    9.0050    0.1410    0.8505 C   0  0  0  0  0  0  0  0  0  0  0  0
    9.1119   -0.4408   -0.5707 C   0  0  0  0  0  0  0  0  0  0  0  0
    8.0460    0.1280   -1.5352 C   0  0  0  0  0  0  0  0  0  0  0  0
    6.9188   -0.8686   -1.8685 C   0  0  0  0  0  0  0  0  0  0  0  0
    6.0592   -1.2914   -0.6624 C   0  0  0  0  0  0  0  0  0  0  0  0
    5.1467   -0.2204   -0.1315 C   0  0  0  0  0  0  0  0  0  0  0  0
    5.1642    0.9490   -0.6043 O   0  0  0  0  0  0  0  0  0  0  0  0
    4.2559   -0.5565    0.8934 O   0  0  0  0  0  0  0  0  0  0  0  0
    3.3064    0.3531    1.4523 C   0  0  0  0  0  0  0  0  0  0  0  0
    2.2302    0.7562    0.4310 C   0  0  0  0  0  0  0  0  0  0  0  0
    1.8404   -0.3791   -0.4364 N   0  0  0  0  0  0  0  0  0  0  0  0
    1.2651    0.0665   -1.7330 C   0  0  0  0  0  0  0  0  0  0  0  0
   -0.1279   -0.5194   -2.0231 C   0  0  0  0  0  0  0  0  0  0  0  0
   -1.0272   -0.3780   -0.8612 N   0  0  0  0  0  0  0  0  0  0  0  0
   -1.4974    1.0167   -0.6874 C   0  0  0  0  0  0  0  0  0  0  0  0
   -2.8343    1.0505    0.0657 C   0  0  0  0  0  0  0  0  0  0  0  0
   -3.9847    0.5069   -0.7951 C   0  0  0  0  0  0  0  0  0  0  0  0
   -5.1429    0.1588    0.0441 N   0  0  0  0  0  0  0  0  0  0  0  0
   -5.0426   -0.8594    1.0685 C   0  0  0  0  0  0  0  0  0  0  0  0
   -4.3250   -2.0513    0.8508 C   0  0  0  0  0  0  0  0  0  0  0  0
   -4.3356   -3.0642    1.8139 C   0  0  0  0  0  0  0  0  0  0  0  0
   -5.0736   -2.9090    2.9902 C   0  0  0  0  0  0  0  0  0  0  0  0
   -5.7936   -1.7321    3.2146 C   0  0  0  0  0  0  0  0  0  0  0  0
   -5.7635   -0.7031    2.2690 C   0  0  0  0  0  0  0  0  0  0  0  0
   -6.5288    0.8768    2.6404 S   0  0  0  0  0  0  0  0  0  0  0  0
   -7.2256    1.0581    0.9970 C   0  0  0  0  0  0  0  0  0  0  0  0
   -8.5408    1.5025    0.8419 C   0  0  0  0  0  0  0  0  0  0  0  0
   -9.0554    1.7403   -0.4345 C   0  0  0  0  0  0  0  0  0  0  0  0
   -8.2515    1.5514   -1.5741 C   0  0  0  0  0  0  0  0  0  0  0  0
   -6.9466    1.0493   -1.4149 C   0  0  0  0  0  0  0  0  0  0  0  0
   -6.4211    0.8109   -0.1303 C   0  0  0  0  0  0  0  0  0  0  0  0
   -8.8161    1.7582   -2.9566 C   0  0  0  0  0  0  0  0  0  0  0  0
   -9.8663    2.6612   -2.9325 F   0  0  0  0  0  0  0  0  0  0  0  0
   -9.2728    0.5494   -3.4480 F   0  0  0  0  0  0  0  0  0  0  0  0
   -7.8393    2.2501   -3.8055 F   0  0  0  0  0  0  0  0  0  0  0  0
   -0.4571   -0.9516    0.3876 C   0  0  0  0  0  0  0  0  0  0  0  0
    1.0144   -1.3892    0.2598 C   0  0  0  0  0  0  0  0  0  0  0  0
    9.0592    2.2478    0.2640 H   0  0  0  0  0  0  0  0  0  0  0  0
   10.6726    1.5336    0.6731 H   0  0  0  0  0  0  0  0  0  0  0  0
    9.4983    1.9297    1.9810 H   0  0  0  0  0  0  0  0  0  0  0  0
    7.9447    0.1618    1.1828 H   0  0  0  0  0  0  0  0  0  0  0  0
    9.5637   -0.5174    1.5492 H   0  0  0  0  0  0  0  0  0  0  0  0
    9.0305   -1.5482   -0.5120 H   0  0  0  0  0  0  0  0  0  0  0  0
   10.1275   -0.2308   -0.9758 H   0  0  0  0  0  0  0  0  0  0  0  0
    7.6158    1.0742   -1.1510 H   0  0  0  0  0  0  0  0  0  0  0  0
    8.5471    0.3901   -2.4930 H   0  0  0  0  0  0  0  0  0  0  0  0
    7.3741   -1.7777   -2.3167 H   0  0  0  0  0  0  0  0  0  0  0  0
    6.2600   -0.4228   -2.6471 H   0  0  0  0  0  0  0  0  0  0  0  0
    6.7000   -1.6675    0.1616 H   0  0  0  0  0  0  0  0  0  0  0  0
    5.4203   -2.1422   -0.9821 H   0  0  0  0  0  0  0  0  0  0  0  0
    3.8278    1.2582    1.8317 H   0  0  0  0  0  0  0  0  0  0  0  0
    2.8248   -0.1330    2.3262 H   0  0  0  0  0  0  0  0  0  0  0  0
    2.6611    1.5786   -0.1807 H   0  0  0  0  0  0  0  0  0  0  0  0
    1.3511    1.1743    0.9655 H   0  0  0  0  0  0  0  0  0  0  0  0
    1.1843    1.1746   -1.7998 H   0  0  0  0  0  0  0  0  0  0  0  0
    1.9553   -0.2483   -2.5448 H   0  0  0  0  0  0  0  0  0  0  0  0
   -0.0317   -1.5959   -2.2809 H   0  0  0  0  0  0  0  0  0  0  0  0
   -0.5625   -0.0338   -2.9241 H   0  0  0  0  0  0  0  0  0  0  0  0
   -1.6451    1.5162   -1.6718 H   0  0  0  0  0  0  0  0  0  0  0  0
   -0.7467    1.6199   -0.1332 H   0  0  0  0  0  0  0  0  0  0  0  0
   -2.7420    0.4751    1.0097 H   0  0  0  0  0  0  0  0  0  0  0  0
   -3.0648    2.1008    0.3486 H   0  0  0  0  0  0  0  0  0  0  0  0
   -3.6686   -0.3823   -1.3783 H   0  0  0  0  0  0  0  0  0  0  0  0
   -4.2483    1.2919   -1.5347 H   0  0  0  0  0  0  0  0  0  0  0  0
   -3.7802   -2.2153   -0.0685 H   0  0  0  0  0  0  0  0  0  0  0  0
   -3.7826   -3.9776    1.6424 H   0  0  0  0  0  0  0  0  0  0  0  0
   -5.0807   -3.6966    3.7313 H   0  0  0  0  0  0  0  0  0  0  0  0
   -6.3383   -1.6031    4.1412 H   0  0  0  0  0  0  0  0  0  0  0  0
   -9.1612    1.6792    1.7114 H   0  0  0  0  0  0  0  0  0  0  0  0
  -10.0802    2.0765   -0.5294 H   0  0  0  0  0  0  0  0  0  0  0  0
   -6.3632    0.7942   -2.2908 H   0  0  0  0  0  0  0  0  0  0  0  0
   -0.5365   -0.2516    1.2490 H   0  0  0  0  0  0  0  0  0  0  0  0
   -1.0596   -1.8406    0.6650 H   0  0  0  0  0  0  0  0  0  0  0  0
    1.0657   -2.3431   -0.3078 H   0  0  0  0  0  0  0  0  0  0  0  0
    1.4198   -1.6199    1.2657 H   0  0  0  0  0  0  0  0  0  0  0  0
  1  2  1  0
  2  3  1  0
  3  4  1  0
  4  5  1  0
  5  6  1  0
  6  7  1  0
  7  8  2  0
  7  9  1  0
  9 10  1  0
 10 11  1  0
 11 12  1  0
 12 13  1  0
 13 14  1  0
 14 15  1  0
 15 16  1  0
 16 17  1  0
 17 18  1  0
 18 19  1  0
 19 20  1  0
 20 21  2  0
 21 22  1  0
 22 23  2  0
 23 24  1  0
 24 25  2  0
 25 20  1  0
 25 26  1  0
 26 27  1  0
 27 28  2  0
 28 29  1  0
 29 30  2  0
 30 31  1  0
 31 32  2  0
 32 19  1  0
 32 27  1  0
 30 33  1  0
 33 34  1  0
 33 35  1  0
 33 36  1  0
 15 37  1  0
 37 38  1  0
 38 12  1  0
  1 39  1  0
  1 40  1  0
  1 41  1  0
  2 42  1  0
  2 43  1  0
  3 44  1  0
  3 45  1  0
  4 46  1  0
  4 47  1  0
  5 48  1  0
  5 49  1  0
  6 50  1  0
  6 51  1  0
 10 52  1  0
 10 53  1  0
 11 54  1  0
 11 55  1  0
 13 56  1  0
 13 57  1  0
 14 58  1  0
 14 59  1  0
 16 60  1  0
 16 61  1  0
 17 62  1  0
 17 63  1  0
 18 64  1  0
 18 65  1  0
 21 66  1  0
 22 67  1  0
 23 68  1  0
 24 69  1  0
 28 70  1  0
 29 71  1  0
 31 72  1  0
 37 73  1  0
 37 74  1  0
 38 75  1  0
 38 76  1  0
M  END
> <ID>
HT0914

> <Class>
1.0

> <Clusters>
276

> <Fold>
4

$$$$