
     RDKit          3D

 43 45  0  0  0  0  0  0  0  0999 V2000
    6.2225    0.1211   -2.2626 C   0  0  0  0  0  0  0  0  0  0  0  0
    5.3634    0.2136   -1.0364 C   0  0  0  0  0  0  0  0  0  0  0  0
    5.2496    1.4197   -0.3260 C   0  0  0  0  0  0  0  0  0  0  0  0
    4.4465    1.4912    0.8164 C   0  0  0  0  0  0  0  0  0  0  0  0
    3.7484    0.3587    1.2594 C   0  0  0  0  0  0  0  0  0  0  0  0
    3.8606   -0.8447    0.5516 C   0  0  0  0  0  0  0  0  0  0  0  0
    4.6641   -0.9178   -0.5900 C   0  0  0  0  0  0  0  0  0  0  0  0
    2.7238    0.4333    2.6889 S   0  0  0  0  0  0  0  0  0  0  0  0
    3.2779   -0.4900    3.7370 O   0  0  0  0  0  0  0  0  0  0  0  0
    2.6820    1.8291    3.2458 O   0  0  0  0  0  0  0  0  0  0  0  0
    1.1164   -0.0614    2.2749 N   0  0  0  0  0  0  0  0  0  0  0  0
    0.3465    0.6320    1.2880 C   0  0  0  0  0  0  0  0  0  0  0  0
    0.8233    1.6444    0.7067 O   0  0  0  0  0  0  0  0  0  0  0  0
   -0.9674    0.1756    0.9592 N   0  0  0  0  0  0  0  0  0  0  0  0
   -1.7354    0.8575   -0.0080 N   0  0  0  0  0  0  0  0  0  0  0  0
   -2.1281   -0.0905   -1.0562 C   0  0  0  0  0  0  0  0  0  0  0  0
   -3.4636   -0.7166   -0.6402 C   0  0  0  0  0  0  0  0  0  0  0  0
   -4.5295   -0.7513   -1.7408 C   0  0  0  0  0  0  0  0  0  0  0  0
   -5.8237   -0.3538   -1.0531 C   0  0  0  0  0  0  0  0  0  0  0  0
   -5.4097    0.6137    0.0428 C   0  0  0  0  0  0  0  0  0  0  0  0
   -4.0040    0.1703    0.4667 C   0  0  0  0  0  0  0  0  0  0  0  0
   -2.9864    1.3052    0.6117 C   0  0  0  0  0  0  0  0  0  0  0  0
    7.0073   -0.6502   -2.1114 H   0  0  0  0  0  0  0  0  0  0  0  0
    6.7192    1.0894   -2.4858 H   0  0  0  0  0  0  0  0  0  0  0  0
    5.5975   -0.1627   -3.1353 H   0  0  0  0  0  0  0  0  0  0  0  0
    5.7812    2.3042   -0.6540 H   0  0  0  0  0  0  0  0  0  0  0  0
    4.3712    2.4290    1.3512 H   0  0  0  0  0  0  0  0  0  0  0  0
    3.3254   -1.7258    0.8843 H   0  0  0  0  0  0  0  0  0  0  0  0
    4.7433   -1.8563   -1.1255 H   0  0  0  0  0  0  0  0  0  0  0  0
    0.7123   -0.8972    2.7525 H   0  0  0  0  0  0  0  0  0  0  0  0
   -1.3531   -0.6648    1.4503 H   0  0  0  0  0  0  0  0  0  0  0  0
   -2.2154    0.4716   -2.0105 H   0  0  0  0  0  0  0  0  0  0  0  0
   -1.3549   -0.8766   -1.2123 H   0  0  0  0  0  0  0  0  0  0  0  0
   -3.2948   -1.7448   -0.2459 H   0  0  0  0  0  0  0  0  0  0  0  0
   -4.3184   -0.0166   -2.5483 H   0  0  0  0  0  0  0  0  0  0  0  0
   -4.6109   -1.7646   -2.1904 H   0  0  0  0  0  0  0  0  0  0  0  0
   -6.2965   -1.2532   -0.5989 H   0  0  0  0  0  0  0  0  0  0  0  0
   -6.5361    0.1159   -1.7651 H   0  0  0  0  0  0  0  0  0  0  0  0
   -5.4161    1.6454   -0.3714 H   0  0  0  0  0  0  0  0  0  0  0  0
   -6.1180    0.5696    0.8984 H   0  0  0  0  0  0  0  0  0  0  0  0
   -4.0593   -0.4100    1.4161 H   0  0  0  0  0  0  0  0  0  0  0  0
   -3.3178    2.2247    0.0834 H   0  0  0  0  0  0  0  0  0  0  0  0
   -2.8436    1.5755    1.6827 H   0  0  0  0  0  0  0  0  0  0  0  0
  1  2  1  0
  2  3  2  0
  3  4  1  0
  4  5  2  0
  5  6  1  0
  6  7  2  0
  7  2  1  0
  5  8  1  0
  8  9  2  0
  8 10  2  0
  8 11  1  0
 11 12  1  0
 12 13  2  0
 12 14  1  0
 14 15  1  0
 15 16  1  0
 16 17  1  0
 17 18  1  0
 18 19  1  0
 19 20  1  0
 20 21  1  0
 21 17  1  0
 21 22  1  0
 22 15  1  0
  1 23  1  0
  1 24  1  0
  1 25  1  0
  3 26  1  0
  4 27  1  0
  6 28  1  0
  7 29  1  0
 11 30  1  0
 14 31  1  0
 16 32  1  0
 16 33  1  0
 17 34  1  0
 18 35  1  0
 18 36  1  0
 19 37  1  0
 19 38  1  0
 20 39  1  0
 20 40  1  0
 21 41  1  0
 22 42  1  0
 22 43  1  0
M  END
> <ID>
HT0986

> <Class>
1.0

> <Clusters>
230

> <Fold>
4

$$$$