
     RDKit          3D

 56 59  0  0  0  0  0  0  0  0999 V2000
    6.8954    2.1438    0.1477 O   0  0  0  0  0  0  0  0  0  0  0  0
    6.4794    2.0035    1.4799 C   0  0  0  0  0  0  0  0  0  0  0  0
    5.7757    0.6546    1.6610 C   0  0  0  0  0  0  0  0  0  0  0  0
    4.6937    0.4700    0.6677 N   0  0  0  0  0  0  0  0  0  0  0  0
    3.5333    1.3475    0.9513 C   0  0  0  0  0  0  0  0  0  0  0  0
    2.3047    0.9041    0.1479 C   0  0  0  0  0  0  0  0  0  0  0  0
    1.8671   -0.4717    0.4997 N   0  0  0  0  0  0  0  0  0  0  0  0
    1.2393   -1.1580   -0.6531 C   0  0  0  0  0  0  0  0  0  0  0  0
   -0.1095   -0.5230   -1.0276 C   0  0  0  0  0  0  0  0  0  0  0  0
   -1.1132   -0.5670    0.1415 C   0  0  0  0  0  0  0  0  0  0  0  0
   -2.5003   -0.6945   -0.3326 N   0  0  0  0  0  0  0  0  0  0  0  0
   -3.1386   -1.9919   -0.3668 C   0  0  0  0  0  0  0  0  0  0  0  0
   -2.5036   -3.0992   -0.9585 C   0  0  0  0  0  0  0  0  0  0  0  0
   -3.1990   -4.2992   -1.1331 C   0  0  0  0  0  0  0  0  0  0  0  0
   -4.5317   -4.4064   -0.7227 C   0  0  0  0  0  0  0  0  0  0  0  0
   -5.1620   -3.3233   -0.1062 C   0  0  0  0  0  0  0  0  0  0  0  0
   -4.4619   -2.1283    0.0930 C   0  0  0  0  0  0  0  0  0  0  0  0
   -5.2009   -0.8096    1.0574 S   0  0  0  0  0  0  0  0  0  0  0  0
   -4.6566    0.4724   -0.0708 C   0  0  0  0  0  0  0  0  0  0  0  0
   -5.5270    1.5095   -0.4130 C   0  0  0  0  0  0  0  0  0  0  0  0
   -5.0725    2.5809   -1.1850 C   0  0  0  0  0  0  0  0  0  0  0  0
   -3.7377    2.6293   -1.6179 C   0  0  0  0  0  0  0  0  0  0  0  0
   -2.8801    1.5555   -1.3163 C   0  0  0  0  0  0  0  0  0  0  0  0
   -3.3282    0.4749   -0.5339 C   0  0  0  0  0  0  0  0  0  0  0  0
   -3.2629    3.7640   -2.4895 C   0  0  0  0  0  0  0  0  0  0  0  0
   -3.5147    3.4557   -3.8140 F   0  0  0  0  0  0  0  0  0  0  0  0
   -3.9240    4.9363   -2.1649 F   0  0  0  0  0  0  0  0  0  0  0  0
   -1.9030    3.9734   -2.3257 F   0  0  0  0  0  0  0  0  0  0  0  0
    2.9473   -1.2926    1.0990 C   0  0  0  0  0  0  0  0  0  0  0  0
    4.3249   -0.9596    0.5038 C   0  0  0  0  0  0  0  0  0  0  0  0
    7.3921    3.0043    0.0968 H   0  0  0  0  0  0  0  0  0  0  0  0
    5.7957    2.8360    1.7578 H   0  0  0  0  0  0  0  0  0  0  0  0
    7.3642    2.0432    2.1566 H   0  0  0  0  0  0  0  0  0  0  0  0
    6.5587   -0.1255    1.5290 H   0  0  0  0  0  0  0  0  0  0  0  0
    5.3853    0.5641    2.7001 H   0  0  0  0  0  0  0  0  0  0  0  0
    3.7767    2.3903    0.6575 H   0  0  0  0  0  0  0  0  0  0  0  0
    3.2775    1.3452    2.0349 H   0  0  0  0  0  0  0  0  0  0  0  0
    1.4719    1.6095    0.3589 H   0  0  0  0  0  0  0  0  0  0  0  0
    2.5567    0.9909   -0.9337 H   0  0  0  0  0  0  0  0  0  0  0  0
    1.9174   -1.1457   -1.5362 H   0  0  0  0  0  0  0  0  0  0  0  0
    1.0409   -2.2263   -0.4137 H   0  0  0  0  0  0  0  0  0  0  0  0
    0.0585    0.5251   -1.3462 H   0  0  0  0  0  0  0  0  0  0  0  0
   -0.5168   -1.0597   -1.9097 H   0  0  0  0  0  0  0  0  0  0  0  0
   -1.0051    0.3537    0.7561 H   0  0  0  0  0  0  0  0  0  0  0  0
   -0.8835   -1.4184    0.8202 H   0  0  0  0  0  0  0  0  0  0  0  0
   -1.4852   -3.0364   -1.3093 H   0  0  0  0  0  0  0  0  0  0  0  0
   -2.7085   -5.1442   -1.5992 H   0  0  0  0  0  0  0  0  0  0  0  0
   -5.0674   -5.3364   -0.8629 H   0  0  0  0  0  0  0  0  0  0  0  0
   -6.1782   -3.4261    0.2509 H   0  0  0  0  0  0  0  0  0  0  0  0
   -6.5472    1.5038   -0.0533 H   0  0  0  0  0  0  0  0  0  0  0  0
   -5.7630    3.3752   -1.4392 H   0  0  0  0  0  0  0  0  0  0  0  0
   -1.8822    1.5490   -1.7228 H   0  0  0  0  0  0  0  0  0  0  0  0
    2.7543   -2.3816    0.9867 H   0  0  0  0  0  0  0  0  0  0  0  0
    2.9738   -1.1032    2.1933 H   0  0  0  0  0  0  0  0  0  0  0  0
    5.0752   -1.6477    0.9512 H   0  0  0  0  0  0  0  0  0  0  0  0
    4.3048   -1.1903   -0.5808 H   0  0  0  0  0  0  0  0  0  0  0  0
  1  2  1  0
  2  3  1  0
  3  4  1  0
  4  5  1  0
  5  6  1  0
  6  7  1  0
  7  8  1  0
  8  9  1  0
  9 10  1  0
 10 11  1  0
 11 12  1  0
 12 13  2  0
 13 14  1  0
 14 15  2  0
 15 16  1  0
 16 17  2  0
 17 12  1  0
 17 18  1  0
 18 19  1  0
 19 20  2  0
 20 21  1  0
 21 22  2  0
 22 23  1  0
 23 24  2  0
 24 11  1  0
 24 19  1  0
 22 25  1  0
 25 26  1  0
 25 27  1  0
 25 28  1  0
  7 29  1  0
 29 30  1  0
 30  4  1  0
  1 31  1  0
  2 32  1  0
  2 33  1  0
  3 34  1  0
  3 35  1  0
  5 36  1  0
  5 37  1  0
  6 38  1  0
  6 39  1  0
  8 40  1  0
  8 41  1  0
  9 42  1  0
  9 43  1  0
 10 44  1  0
 10 45  1  0
 13 46  1  0
 14 47  1  0
 15 48  1  0
 16 49  1  0
 20 50  1  0
 21 51  1  0
 23 52  1  0
 29 53  1  0
 29 54  1  0
 30 55  1  0
 30 56  1  0
M  END
> <ID>
HT0915

> <Class>
1.0

> <Clusters>
276

> <Fold>
4

$$$$