
     RDKit          3D

 42 41  0  0  0  0  0  0  0  0999 V2000
    4.4877    2.3462   -0.1640 C   0  0  0  0  0  0  0  0  0  0  0  0
    4.0639    0.9036   -0.4240 C   0  0  0  0  0  0  0  0  0  0  0  0
    2.7376    0.8476   -1.1951 C   0  0  0  0  0  0  0  0  0  0  0  0
    2.3483   -0.5835   -1.6056 C   0  0  0  0  0  0  0  0  0  0  0  0
    2.0762   -1.5222   -0.4159 C   0  0  0  0  0  0  0  0  0  0  0  0
    1.1124   -0.9237    0.5347 N   0  0  0  0  0  0  0  0  0  0  0  0
    1.3287   -1.4683    1.8869 C   0  0  0  0  0  0  0  0  0  0  0  0
   -0.2879   -1.1364    0.1011 C   0  0  0  0  0  0  0  0  0  0  0  0
   -1.1705    0.0282    0.5845 C   0  0  0  0  0  0  0  0  0  0  0  0
   -2.5641    0.1028   -0.0957 C   0  0  0  0  0  0  0  0  0  0  0  0
   -2.4387    0.1540   -1.4950 O   0  0  0  0  0  0  0  0  0  0  0  0
   -3.5855   -1.3579    0.3340 P   0  0  0  0  0  0  0  0  0  0  0  0
   -3.0294   -2.5929   -0.3388 O   0  0  0  0  0  0  0  0  0  0  0  0
   -5.1748   -1.1227   -0.1988 O   0  0  0  0  0  0  0  0  0  0  0  0
   -3.5828   -1.5817    2.0122 O   0  0  0  0  0  0  0  0  0  0  0  0
   -3.4284    1.6145    0.4861 P   0  0  0  0  0  0  0  0  0  0  0  0
   -3.6966    1.5134    1.9718 O   0  0  0  0  0  0  0  0  0  0  0  0
   -4.8900    1.8043   -0.3502 O   0  0  0  0  0  0  0  0  0  0  0  0
   -2.4572    2.9711    0.1997 O   0  0  0  0  0  0  0  0  0  0  0  0
    3.7135    2.8736    0.4333 H   0  0  0  0  0  0  0  0  0  0  0  0
    4.6396    2.8833   -1.1243 H   0  0  0  0  0  0  0  0  0  0  0  0
    5.4424    2.3566    0.4031 H   0  0  0  0  0  0  0  0  0  0  0  0
    4.8613    0.3940   -1.0073 H   0  0  0  0  0  0  0  0  0  0  0  0
    3.9561    0.3898    0.5547 H   0  0  0  0  0  0  0  0  0  0  0  0
    1.9266    1.3026   -0.5861 H   0  0  0  0  0  0  0  0  0  0  0  0
    2.8343    1.4529   -2.1231 H   0  0  0  0  0  0  0  0  0  0  0  0
    3.1586   -1.0197   -2.2295 H   0  0  0  0  0  0  0  0  0  0  0  0
    1.4460   -0.5296   -2.2501 H   0  0  0  0  0  0  0  0  0  0  0  0
    1.7054   -2.5025   -0.7931 H   0  0  0  0  0  0  0  0  0  0  0  0
    3.0517   -1.7303    0.0781 H   0  0  0  0  0  0  0  0  0  0  0  0
    2.3406   -1.1886    2.2510 H   0  0  0  0  0  0  0  0  0  0  0  0
    1.2342   -2.5771    1.8923 H   0  0  0  0  0  0  0  0  0  0  0  0
    0.5996   -1.0388    2.6051 H   0  0  0  0  0  0  0  0  0  0  0  0
   -0.3543   -1.1846   -1.0065 H   0  0  0  0  0  0  0  0  0  0  0  0
   -0.6784   -2.1038    0.4868 H   0  0  0  0  0  0  0  0  0  0  0  0
   -1.3022   -0.0424    1.6853 H   0  0  0  0  0  0  0  0  0  0  0  0
   -0.6245    0.9760    0.3820 H   0  0  0  0  0  0  0  0  0  0  0  0
   -1.8618    0.9301   -1.7199 H   0  0  0  0  0  0  0  0  0  0  0  0
   -5.6677   -1.9246    0.1091 H   0  0  0  0  0  0  0  0  0  0  0  0
   -4.1356   -2.3896    2.1620 H   0  0  0  0  0  0  0  0  0  0  0  0
   -5.5962    1.5347    0.2896 H   0  0  0  0  0  0  0  0  0  0  0  0
   -2.5382    3.1415   -0.7724 H   0  0  0  0  0  0  0  0  0  0  0  0
  1  2  1  0
  2  3  1  0
  3  4  1  0
  4  5  1  0
  5  6  1  0
  6  7  1  0
  6  8  1  0
  8  9  1  0
  9 10  1  0
 10 11  1  0
 10 12  1  0
 12 13  2  0
 12 14  1  0
 12 15  1  0
 10 16  1  0
 16 17  2  0
 16 18  1  0
 16 19  1  0
  1 20  1  0
  1 21  1  0
  1 22  1  0
  2 23  1  0
  2 24  1  0
  3 25  1  0
  3 26  1  0
  4 27  1  0
  4 28  1  0
  5 29  1  0
  5 30  1  0
  7 31  1  0
  7 32  1  0
  7 33  1  0
  8 34  1  0
  8 35  1  0
  9 36  1  0
  9 37  1  0
 11 38  1  0
 14 39  1  0
 15 40  1  0
 18 41  1  0
 19 42  1  0
M  END
> <ID>
HT1066

> <Class>
1.0

> <Clusters>
188

> <Fold>
4

$$$$