
     RDKit          3D

 41 44  0  0  0  0  0  0  0  0999 V2000
    4.4277   -1.3728    0.9149 C   0  0  0  0  0  0  0  0  0  0  0  0
    3.0776   -0.8969    0.5784 N   0  0  0  0  0  0  0  0  0  0  0  0
    2.9506    0.5539    0.8580 C   0  0  0  0  0  0  0  0  0  0  0  0
    1.8487    1.2608    0.0339 C   0  0  0  0  0  0  0  0  0  0  0  0
    0.7733    0.3009   -0.4452 C   0  0  0  0  0  0  0  0  0  0  0  0
   -0.5562    0.5713   -0.3260 C   0  0  0  0  0  0  0  0  0  0  0  0
   -1.5831   -0.4469   -0.6549 C   0  0  0  0  0  0  0  0  0  0  0  0
   -1.8076   -0.8135   -1.9917 C   0  0  0  0  0  0  0  0  0  0  0  0
   -2.8000   -1.7429   -2.3104 C   0  0  0  0  0  0  0  0  0  0  0  0
   -3.5873   -2.3002   -1.3013 C   0  0  0  0  0  0  0  0  0  0  0  0
   -3.3883   -1.9273    0.0303 C   0  0  0  0  0  0  0  0  0  0  0  0
   -2.3870   -1.0005    0.3662 C   0  0  0  0  0  0  0  0  0  0  0  0
   -2.1934   -0.5820    1.8030 C   0  0  0  0  0  0  0  0  0  0  0  0
   -2.6263    0.8434    2.0004 C   0  0  0  0  0  0  0  0  0  0  0  0
   -3.5239    1.0993    2.8471 O   0  0  0  0  0  0  0  0  0  0  0  0
   -2.0182    1.9517    1.2334 C   0  0  0  0  0  0  0  0  0  0  0  0
   -2.3991    3.5770    1.4446 S   0  0  0  0  0  0  0  0  0  0  0  0
   -1.3921    4.1748    0.2407 C   0  0  0  0  0  0  0  0  0  0  0  0
   -0.7423    3.1027   -0.3542 C   0  0  0  0  0  0  0  0  0  0  0  0
   -1.0706    1.8558    0.2074 C   0  0  0  0  0  0  0  0  0  0  0  0
    1.2476   -1.0162   -1.0312 C   0  0  0  0  0  0  0  0  0  0  0  0
    2.7482   -1.2184   -0.8191 C   0  0  0  0  0  0  0  0  0  0  0  0
    4.6757   -1.1092    1.9659 H   0  0  0  0  0  0  0  0  0  0  0  0
    5.1908   -0.9277    0.2379 H   0  0  0  0  0  0  0  0  0  0  0  0
    4.4720   -2.4800    0.8328 H   0  0  0  0  0  0  0  0  0  0  0  0
    2.7139    0.6737    1.9377 H   0  0  0  0  0  0  0  0  0  0  0  0
    3.9111    1.0878    0.6722 H   0  0  0  0  0  0  0  0  0  0  0  0
    2.3137    1.7177   -0.8663 H   0  0  0  0  0  0  0  0  0  0  0  0
    1.4509    2.0902    0.6520 H   0  0  0  0  0  0  0  0  0  0  0  0
   -1.2224   -0.3697   -2.7875 H   0  0  0  0  0  0  0  0  0  0  0  0
   -2.9653   -2.0245   -3.3423 H   0  0  0  0  0  0  0  0  0  0  0  0
   -4.3596   -3.0158   -1.5523 H   0  0  0  0  0  0  0  0  0  0  0  0
   -4.0178   -2.3597    0.7981 H   0  0  0  0  0  0  0  0  0  0  0  0
   -2.7640   -1.2481    2.4872 H   0  0  0  0  0  0  0  0  0  0  0  0
   -1.1216   -0.6807    2.0797 H   0  0  0  0  0  0  0  0  0  0  0  0
   -1.2817    5.2139   -0.0380 H   0  0  0  0  0  0  0  0  0  0  0  0
   -0.0573    3.2215   -1.1837 H   0  0  0  0  0  0  0  0  0  0  0  0
    0.7163   -1.8562   -0.5319 H   0  0  0  0  0  0  0  0  0  0  0  0
    1.0282   -1.0492   -2.1191 H   0  0  0  0  0  0  0  0  0  0  0  0
    3.3290   -0.5767   -1.5210 H   0  0  0  0  0  0  0  0  0  0  0  0
    2.9896   -2.2812   -1.0456 H   0  0  0  0  0  0  0  0  0  0  0  0
  1  2  1  0
  2  3  1  0
  3  4  1  0
  4  5  1  0
  5  6  2  3
  6  7  1  0
  7  8  2  0
  8  9  1  0
  9 10  2  0
 10 11  1  0
 11 12  2  0
 12  7  1  0
 12 13  1  0
 13 14  1  0
 14 15  2  0
 14 16  1  0
 16 17  1  0
 17 18  1  0
 18 19  2  0
 19 20  1  0
 20  6  1  0
 20 16  2  0
  5 21  1  0
 21 22  1  0
 22  2  1  0
  1 23  1  0
  1 24  1  0
  1 25  1  0
  3 26  1  0
  3 27  1  0
  4 28  1  0
  4 29  1  0
  8 30  1  0
  9 31  1  0
 10 32  1  0
 11 33  1  0
 13 34  1  0
 13 35  1  0
 18 36  1  0
 19 37  1  0
 21 38  1  0
 21 39  1  0
 22 40  1  0
 22 41  1  0
M  END
> <ID>
HT1162

> <Class>
1.0

> <Clusters>
26

> <Fold>
4

$$$$