
     RDKit          3D

 56 56  0  0  0  0  0  0  0  0999 V2000
   -2.7803    6.0014   -1.6569 C   0  0  0  0  0  0  0  0  0  0  0  0
   -1.3738    6.1142   -1.6319 O   0  0  0  0  0  0  0  0  0  0  0  0
   -0.8971    6.0040   -0.3037 C   0  0  0  0  0  0  0  0  0  0  0  0
   -0.5700    4.5814    0.0624 C   0  0  0  0  0  0  0  0  0  0  0  0
   -0.1871    4.3346    1.2382 O   0  0  0  0  0  0  0  0  0  0  0  0
   -0.6693    3.5152   -0.8961 N   0  0  0  0  0  0  0  0  0  0  0  0
   -0.3755    2.1580   -0.5422 C   0  0  0  0  0  0  0  0  0  0  0  0
   -1.2785    1.4188    0.2440 C   0  0  0  0  0  0  0  0  0  0  0  0
   -3.1466    2.2940    0.8015 I   0  0  0  0  0  0  0  0  0  0  0  0
   -0.9816    0.0850    0.5897 C   0  0  0  0  0  0  0  0  0  0  0  0
   -1.9296   -0.6899    1.4095 C   0  0  0  0  0  0  0  0  0  0  0  0
   -2.1342   -0.3536    2.6075 O   0  0  0  0  0  0  0  0  0  0  0  0
   -2.6234   -1.8081    0.8426 N   0  0  0  0  0  0  0  0  0  0  0  0
   -3.5384   -2.6230    1.6441 C   0  0  0  0  0  0  0  0  0  0  0  0
   -4.2184   -3.7242    0.8109 C   0  0  0  0  0  0  0  0  0  0  0  0
   -3.2348   -4.5373    0.2244 O   0  0  0  0  0  0  0  0  0  0  0  0
   -5.1478   -3.1539   -0.2762 C   0  0  0  0  0  0  0  0  0  0  0  0
   -6.2002   -2.4268    0.3005 O   0  0  0  0  0  0  0  0  0  0  0  0
    0.2168   -0.5085    0.1420 C   0  0  0  0  0  0  0  0  0  0  0  0
    0.7087   -2.5153    0.7037 I   0  0  0  0  0  0  0  0  0  0  0  0
    1.1107    0.2331   -0.6547 C   0  0  0  0  0  0  0  0  0  0  0  0
    2.3724   -0.3770   -1.1131 C   0  0  0  0  0  0  0  0  0  0  0  0
    2.3783   -0.9878   -2.2162 O   0  0  0  0  0  0  0  0  0  0  0  0
    3.5815   -0.2781   -0.3284 N   0  0  0  0  0  0  0  0  0  0  0  0
    3.5894    0.5019    0.9148 C   0  0  0  0  0  0  0  0  0  0  0  0
    4.8204   -0.9154   -0.8013 C   0  0  0  0  0  0  0  0  0  0  0  0
    4.7890   -2.4394   -0.5762 C   0  0  0  0  0  0  0  0  0  0  0  0
    5.9072   -3.0252   -1.1911 O   0  0  0  0  0  0  0  0  0  0  0  0
    4.8080   -2.7826    0.9173 C   0  0  0  0  0  0  0  0  0  0  0  0
    4.7723   -4.1732    1.0817 O   0  0  0  0  0  0  0  0  0  0  0  0
    0.8086    1.5617   -1.0049 C   0  0  0  0  0  0  0  0  0  0  0  0
    2.1540    2.7008   -2.2092 I   0  0  0  0  0  0  0  0  0  0  0  0
   -3.1150    5.9788   -2.7141 H   0  0  0  0  0  0  0  0  0  0  0  0
   -3.1247    5.0598   -1.1742 H   0  0  0  0  0  0  0  0  0  0  0  0
   -3.2547    6.8817   -1.1702 H   0  0  0  0  0  0  0  0  0  0  0  0
   -1.6010    6.4335    0.4481 H   0  0  0  0  0  0  0  0  0  0  0  0
    0.0382    6.5968   -0.2265 H   0  0  0  0  0  0  0  0  0  0  0  0
   -0.7989    3.7360   -1.9084 H   0  0  0  0  0  0  0  0  0  0  0  0
   -2.4493   -2.0404   -0.1614 H   0  0  0  0  0  0  0  0  0  0  0  0
   -2.9648   -3.1015    2.4674 H   0  0  0  0  0  0  0  0  0  0  0  0
   -4.3096   -1.9711    2.1080 H   0  0  0  0  0  0  0  0  0  0  0  0
   -4.8348   -4.3367    1.5103 H   0  0  0  0  0  0  0  0  0  0  0  0
   -3.6785   -5.3882   -0.0307 H   0  0  0  0  0  0  0  0  0  0  0  0
   -4.5804   -2.5312   -1.0051 H   0  0  0  0  0  0  0  0  0  0  0  0
   -5.5880   -3.9984   -0.8479 H   0  0  0  0  0  0  0  0  0  0  0  0
   -5.9122   -1.4772    0.3315 H   0  0  0  0  0  0  0  0  0  0  0  0
    3.3536    1.5639    0.6952 H   0  0  0  0  0  0  0  0  0  0  0  0
    2.8328    0.0961    1.6187 H   0  0  0  0  0  0  0  0  0  0  0  0
    4.5783    0.4595    1.4178 H   0  0  0  0  0  0  0  0  0  0  0  0
    5.7099   -0.4850   -0.2911 H   0  0  0  0  0  0  0  0  0  0  0  0
    4.9531   -0.6983   -1.8837 H   0  0  0  0  0  0  0  0  0  0  0  0
    3.8566   -2.8628   -1.0170 H   0  0  0  0  0  0  0  0  0  0  0  0
    5.7155   -3.0578   -2.1649 H   0  0  0  0  0  0  0  0  0  0  0  0
    5.7323   -2.3742    1.3849 H   0  0  0  0  0  0  0  0  0  0  0  0
    3.9238   -2.3328    1.4196 H   0  0  0  0  0  0  0  0  0  0  0  0
    4.7870   -4.3354    2.0608 H   0  0  0  0  0  0  0  0  0  0  0  0
  1  2  1  0
  2  3  1  0
  3  4  1  0
  4  5  2  0
  4  6  1  0
  6  7  1  0
  7  8  2  0
  8  9  1  0
  8 10  1  0
 10 11  1  0
 11 12  2  0
 11 13  1  0
 13 14  1  0
 14 15  1  0
 15 16  1  0
 15 17  1  0
 17 18  1  0
 10 19  2  0
 19 20  1  0
 19 21  1  0
 21 22  1  0
 22 23  2  0
 22 24  1  0
 24 25  1  0
 24 26  1  0
 26 27  1  0
 27 28  1  0
 27 29  1  0
 29 30  1  0
 21 31  2  0
 31  7  1  0
 31 32  1  0
  1 33  1  0
  1 34  1  0
  1 35  1  0
  3 36  1  0
  3 37  1  0
  6 38  1  0
 13 39  1  0
 14 40  1  0
 14 41  1  0
 15 42  1  0
 16 43  1  0
 17 44  1  0
 17 45  1  0
 18 46  1  0
 25 47  1  0
 25 48  1  0
 25 49  1  0
 26 50  1  0
 26 51  1  0
 27 52  1  0
 28 53  1  0
 29 54  1  0
 29 55  1  0
 30 56  1  0
M  END
> <ID>
HT1114

> <Class>
1.0

> <Clusters>
134

> <Fold>
4

$$$$