
     RDKit          3D

 36 36  0  0  0  0  0  0  0  0999 V2000
   -3.4229    3.0685    0.0340 C   0  0  0  0  0  0  0  0  0  0  0  0
   -2.4129    2.1899    0.4764 O   0  0  0  0  0  0  0  0  0  0  0  0
   -2.6848    0.8855    0.0071 C   0  0  0  0  0  0  0  0  0  0  0  0
   -1.5734   -0.0737    0.4667 C   0  0  1  0  0  0  0  0  0  0  0  0
   -2.0065   -1.4760    0.3686 N   0  0  0  0  0  0  0  0  0  0  0  0
   -2.4769   -2.1091   -0.8336 C   0  0  0  0  0  0  0  0  0  0  0  0
   -2.4902   -1.4861   -1.9290 O   0  0  0  0  0  0  0  0  0  0  0  0
   -2.9208   -3.5351   -0.7955 C   0  0  0  0  0  0  0  0  0  0  0  0
   -0.2776    0.1643   -0.2753 C   0  0  0  0  0  0  0  0  0  0  0  0
    0.1316   -0.6709   -1.1275 O   0  0  0  0  0  0  0  0  0  0  0  0
    0.5000    1.3388    0.0020 N   0  0  0  0  0  0  0  0  0  0  0  0
    1.7394    1.6441   -0.7096 C   0  0  0  0  0  0  0  0  0  0  0  0
    2.8251    0.6800   -0.3126 C   0  0  0  0  0  0  0  0  0  0  0  0
    3.3987   -0.1834   -1.2614 C   0  0  0  0  0  0  0  0  0  0  0  0
    4.4042   -1.0782   -0.8817 C   0  0  0  0  0  0  0  0  0  0  0  0
    4.8449   -1.1159    0.4441 C   0  0  0  0  0  0  0  0  0  0  0  0
    4.2813   -0.2582    1.3927 C   0  0  0  0  0  0  0  0  0  0  0  0
    3.2757    0.6380    1.0174 C   0  0  0  0  0  0  0  0  0  0  0  0
   -4.4201    2.7683    0.4264 H   0  0  0  0  0  0  0  0  0  0  0  0
   -3.4441    3.1303   -1.0768 H   0  0  0  0  0  0  0  0  0  0  0  0
   -3.2021    4.0841    0.4217 H   0  0  0  0  0  0  0  0  0  0  0  0
   -2.7467    0.8761   -1.1048 H   0  0  0  0  0  0  0  0  0  0  0  0
   -3.6521    0.5248    0.4273 H   0  0  0  0  0  0  0  0  0  0  0  0
   -1.3729    0.1333    1.5419 H   0  0  0  0  0  0  0  0  0  0  0  0
   -1.9846   -2.0487    1.2429 H   0  0  0  0  0  0  0  0  0  0  0  0
   -2.0392   -4.1924   -0.6466 H   0  0  0  0  0  0  0  0  0  0  0  0
   -3.6333   -3.6831    0.0428 H   0  0  0  0  0  0  0  0  0  0  0  0
   -3.4245   -3.8131   -1.7457 H   0  0  0  0  0  0  0  0  0  0  0  0
    0.1659    2.0154    0.7242 H   0  0  0  0  0  0  0  0  0  0  0  0
    2.0672    2.6756   -0.4568 H   0  0  0  0  0  0  0  0  0  0  0  0
    1.5508    1.6169   -1.8051 H   0  0  0  0  0  0  0  0  0  0  0  0
    3.0664   -0.1678   -2.2920 H   0  0  0  0  0  0  0  0  0  0  0  0
    4.8415   -1.7429   -1.6155 H   0  0  0  0  0  0  0  0  0  0  0  0
    5.6230   -1.8092    0.7361 H   0  0  0  0  0  0  0  0  0  0  0  0
    4.6237   -0.2877    2.4190 H   0  0  0  0  0  0  0  0  0  0  0  0
    2.8463    1.2976    1.7615 H   0  0  0  0  0  0  0  0  0  0  0  0
  1  2  1  0
  2  3  1  0
  4  3  1  0
  4  5  1  0
  5  6  1  0
  6  7  2  0
  6  8  1  0
  4  9  1  0
  9 10  2  0
  9 11  1  0
 11 12  1  0
 12 13  1  0
 13 14  2  0
 14 15  1  0
 15 16  2  0
 16 17  1  0
 17 18  2  0
 18 13  1  0
  1 19  1  0
  1 20  1  0
  1 21  1  0
  3 22  1  0
  3 23  1  0
  4 24  1  1
  5 25  1  0
  8 26  1  0
  8 27  1  0
  8 28  1  0
 11 29  1  0
 12 30  1  0
 12 31  1  0
 14 32  1  0
 15 33  1  0
 16 34  1  0
 17 35  1  0
 18 36  1  0
M  END
> <ID>
HT1164

> <Class>
1.0

> <Clusters>
164

> <Fold>
4

$$$$