
     RDKit          3D

 53 53  0  0  0  0  0  0  0  0999 V2000
   -0.9695    6.3460    0.7088 C   0  0  0  0  0  0  0  0  0  0  0  0
    0.2751    5.6269    0.1740 C   0  0  2  0  0  0  0  0  0  0  0  0
    0.4715    5.9292   -1.1852 O   0  0  0  0  0  0  0  0  0  0  0  0
    0.1852    4.1370    0.4140 C   0  0  0  0  0  0  0  0  0  0  0  0
    0.0358    3.7196    1.5953 O   0  0  0  0  0  0  0  0  0  0  0  0
    0.2889    3.1929   -0.6648 N   0  0  0  0  0  0  0  0  0  0  0  0
    0.1196    1.7863   -0.4482 C   0  0  0  0  0  0  0  0  0  0  0  0
   -1.1622    1.2572   -0.2148 C   0  0  0  0  0  0  0  0  0  0  0  0
   -2.8623    2.5503   -0.3042 I   0  0  0  0  0  0  0  0  0  0  0  0
   -1.3246   -0.1262   -0.0018 C   0  0  0  0  0  0  0  0  0  0  0  0
   -2.6706   -0.6757    0.2435 C   0  0  0  0  0  0  0  0  0  0  0  0
   -3.2843   -0.3616    1.2992 O   0  0  0  0  0  0  0  0  0  0  0  0
   -3.2817   -1.5408   -0.7249 N   0  0  0  0  0  0  0  0  0  0  0  0
   -4.6205   -2.1124   -0.5497 C   0  0  0  0  0  0  0  0  0  0  0  0
   -5.3566   -2.1071   -1.8990 C   0  0  0  0  0  0  0  0  0  0  0  0
   -6.7055   -2.4557   -1.7301 O   0  0  0  0  0  0  0  0  0  0  0  0
   -4.5063   -3.5326    0.0210 C   0  0  0  0  0  0  0  0  0  0  0  0
   -3.9004   -3.4899    1.2833 O   0  0  0  0  0  0  0  0  0  0  0  0
   -0.2016   -0.9797   -0.0299 C   0  0  0  0  0  0  0  0  0  0  0  0
   -0.4207   -3.0620    0.4224 I   0  0  0  0  0  0  0  0  0  0  0  0
    1.0791   -0.4478   -0.2874 C   0  0  0  0  0  0  0  0  0  0  0  0
    2.2550   -1.3361   -0.3214 C   0  0  0  0  0  0  0  0  0  0  0  0
    2.3496   -2.2047   -1.2306 O   0  0  0  0  0  0  0  0  0  0  0  0
    3.2714   -1.2229    0.6854 N   0  0  0  0  0  0  0  0  0  0  0  0
    4.4865   -2.0455    0.6700 C   0  0  0  0  0  0  0  0  0  0  0  0
    5.4481   -1.5476   -0.4264 C   0  0  0  0  0  0  0  0  0  0  0  0
    6.5965   -2.3500   -0.4890 O   0  0  0  0  0  0  0  0  0  0  0  0
    5.1571   -2.0510    2.0577 C   0  0  0  0  0  0  0  0  0  0  0  0
    5.6631   -0.7825    2.3854 O   0  0  0  0  0  0  0  0  0  0  0  0
    1.2363    0.9360   -0.5008 C   0  0  0  0  0  0  0  0  0  0  0  0
    3.1554    1.7726   -0.9274 I   0  0  0  0  0  0  0  0  0  0  0  0
   -0.8915    7.4349    0.5039 H   0  0  0  0  0  0  0  0  0  0  0  0
   -1.0568    6.2025    1.8070 H   0  0  0  0  0  0  0  0  0  0  0  0
   -1.8876    5.9541    0.2202 H   0  0  0  0  0  0  0  0  0  0  0  0
    1.1561    6.0063    0.7348 H   0  0  0  0  0  0  0  0  0  0  0  0
   -0.3618    5.6911   -1.6712 H   0  0  0  0  0  0  0  0  0  0  0  0
    0.6397    3.5015   -1.5984 H   0  0  0  0  0  0  0  0  0  0  0  0
   -2.7153   -1.8377   -1.5523 H   0  0  0  0  0  0  0  0  0  0  0  0
   -5.2109   -1.4885    0.1580 H   0  0  0  0  0  0  0  0  0  0  0  0
   -4.8511   -2.7867   -2.6251 H   0  0  0  0  0  0  0  0  0  0  0  0
   -5.3178   -1.0814   -2.3246 H   0  0  0  0  0  0  0  0  0  0  0  0
   -6.7747   -3.4328   -1.8904 H   0  0  0  0  0  0  0  0  0  0  0  0
   -5.5193   -3.9813    0.1219 H   0  0  0  0  0  0  0  0  0  0  0  0
   -3.9004   -4.1656   -0.6665 H   0  0  0  0  0  0  0  0  0  0  0  0
   -3.8239   -4.4324    1.5848 H   0  0  0  0  0  0  0  0  0  0  0  0
    3.0995   -0.5634    1.4777 H   0  0  0  0  0  0  0  0  0  0  0  0
    4.2000   -3.0964    0.4417 H   0  0  0  0  0  0  0  0  0  0  0  0
    4.9377   -1.5453   -1.4156 H   0  0  0  0  0  0  0  0  0  0  0  0
    5.7540   -0.5011   -0.2147 H   0  0  0  0  0  0  0  0  0  0  0  0
    6.3228   -3.2041   -0.9147 H   0  0  0  0  0  0  0  0  0  0  0  0
    5.9986   -2.7759    2.0573 H   0  0  0  0  0  0  0  0  0  0  0  0
    4.4296   -2.4033    2.8260 H   0  0  0  0  0  0  0  0  0  0  0  0
    4.9655   -0.3170    2.9158 H   0  0  0  0  0  0  0  0  0  0  0  0
  1  2  1  0
  2  3  1  0
  2  4  1  0
  4  5  2  0
  4  6  1  0
  6  7  1  0
  7  8  2  0
  8  9  1  0
  8 10  1  0
 10 11  1  0
 11 12  2  0
 11 13  1  0
 13 14  1  0
 14 15  1  0
 15 16  1  0
 14 17  1  0
 17 18  1  0
 10 19  2  0
 19 20  1  0
 19 21  1  0
 21 22  1  0
 22 23  2  0
 22 24  1  0
 24 25  1  0
 25 26  1  0
 26 27  1  0
 25 28  1  0
 28 29  1  0
 21 30  2  0
 30  7  1  0
 30 31  1  0
  1 32  1  0
  1 33  1  0
  1 34  1  0
  2 35  1  1
  3 36  1  0
  6 37  1  0
 13 38  1  0
 14 39  1  0
 15 40  1  0
 15 41  1  0
 16 42  1  0
 17 43  1  0
 17 44  1  0
 18 45  1  0
 24 46  1  0
 25 47  1  0
 26 48  1  0
 26 49  1  0
 27 50  1  0
 28 51  1  0
 28 52  1  0
 29 53  1  0
M  END
> <ID>
HT1111

> <Class>
1.0

> <Clusters>
134

> <Fold>
4

$$$$