
     RDKit          3D

 81 87  0  0  0  0  0  0  0  0999 V2000
   -0.8473    1.8219   -2.9365 C   0  0  0  0  0  0  0  0  0  0  0  0
   -1.4038    0.4051   -2.8194 C   0  0  0  0  0  0  0  0  0  0  0  0
   -2.1425    0.2128   -1.5090 C   0  0  0  0  0  0  0  0  0  0  0  0
   -3.5457    0.2384   -1.4888 C   0  0  0  0  0  0  0  0  0  0  0  0
   -4.5355    0.4106   -2.6127 C   0  0  0  0  0  0  0  0  0  0  0  0
   -5.8271    0.3371   -1.9165 N   0  0  0  0  0  0  0  0  0  0  0  0
   -7.0680    0.4220   -2.4655 C   0  0  0  0  0  0  0  0  0  0  0  0
   -7.1992    0.5945   -3.7073 O   0  0  0  0  0  0  0  0  0  0  0  0
   -8.1975    0.3108   -1.6254 C   0  0  0  0  0  0  0  0  0  0  0  0
   -8.0247    0.1442   -0.2183 C   0  0  0  0  0  0  0  0  0  0  0  0
   -6.7070    0.0633    0.2926 C   0  0  0  0  0  0  0  0  0  0  0  0
   -5.6409    0.1555   -0.5949 C   0  0  0  0  0  0  0  0  0  0  0  0
   -4.2315    0.0914   -0.3105 C   0  0  0  0  0  0  0  0  0  0  0  0
   -3.6170   -0.0869    0.8791 N   0  0  0  0  0  0  0  0  0  0  0  0
   -2.2564   -0.1331    0.9298 C   0  0  0  0  0  0  0  0  0  0  0  0
   -1.6279   -0.3186    2.1630 C   0  0  0  0  0  0  0  0  0  0  0  0
   -0.2387   -0.3922    2.2398 C   0  0  0  0  0  0  0  0  0  0  0  0
    0.5442   -0.3019    1.0866 C   0  0  0  0  0  0  0  0  0  0  0  0
    1.9350   -0.4134    1.2200 O   0  0  0  0  0  0  0  0  0  0  0  0
    2.8014   -0.9988    0.2842 C   0  0  0  0  0  0  0  0  0  0  0  0
    2.3411   -1.6398   -0.6983 O   0  0  0  0  0  0  0  0  0  0  0  0
    4.2246   -0.9102    0.4892 N   0  0  0  0  0  0  0  0  0  0  0  0
    5.1527   -1.7504   -0.2777 C   0  0  0  0  0  0  0  0  0  0  0  0
    6.4128   -0.9620   -0.6698 C   0  0  0  0  0  0  0  0  0  0  0  0
    6.9766   -0.0121    0.4370 C   0  0  0  0  0  0  0  0  0  0  0  0
    6.2442   -0.2540    1.7861 C   0  0  0  0  0  0  0  0  0  0  0  0
    4.7254   -0.1225    1.6222 C   0  0  0  0  0  0  0  0  0  0  0  0
    8.4568   -0.1839    0.5474 N   0  0  0  0  0  0  0  0  0  0  0  0
    9.1486    0.3161   -0.6655 C   0  0  0  0  0  0  0  0  0  0  0  0
   10.6006   -0.1940   -0.6997 C   0  0  0  0  0  0  0  0  0  0  0  0
   11.1727   -0.4173    0.7089 C   0  0  0  0  0  0  0  0  0  0  0  0
   10.5770    0.5842    1.6983 C   0  0  0  0  0  0  0  0  0  0  0  0
    9.0368    0.4701    1.7521 C   0  0  0  0  0  0  0  0  0  0  0  0
   -0.0722   -0.0778   -0.1573 C   0  0  0  0  0  0  0  0  0  0  0  0
   -1.4762    0.0051   -0.2620 C   0  0  0  0  0  0  0  0  0  0  0  0
   -9.2807    0.1483    0.6709 C   0  0  2  0  0  0  0  0  0  0  0  0
   -9.7028    1.4904    0.7580 O   0  0  0  0  0  0  0  0  0  0  0  0
   -9.0226   -0.3999    2.1128 C   0  0  0  0  0  0  0  0  0  0  0  0
  -10.1949   -0.2288    3.0892 C   0  0  0  0  0  0  0  0  0  0  0  0
  -10.3241   -0.6770   -0.0824 C   0  0  0  0  0  0  0  0  0  0  0  0
  -11.0304   -1.5494    0.4915 O   0  0  0  0  0  0  0  0  0  0  0  0
  -10.4516   -0.5065   -1.4637 O   0  0  0  0  0  0  0  0  0  0  0  0
   -9.6011    0.3835   -2.1822 C   0  0  0  0  0  0  0  0  0  0  0  0
   -0.2748    1.9187   -3.8843 H   0  0  0  0  0  0  0  0  0  0  0  0
   -0.1698    2.0629   -2.0898 H   0  0  0  0  0  0  0  0  0  0  0  0
   -1.6792    2.5581   -2.9487 H   0  0  0  0  0  0  0  0  0  0  0  0
   -0.5910   -0.3415   -2.9220 H   0  0  0  0  0  0  0  0  0  0  0  0
   -2.0779    0.2331   -3.6834 H   0  0  0  0  0  0  0  0  0  0  0  0
   -4.4461   -0.4196   -3.3466 H   0  0  0  0  0  0  0  0  0  0  0  0
   -4.4121    1.4028   -3.0983 H   0  0  0  0  0  0  0  0  0  0  0  0
   -6.4852   -0.0715    1.3382 H   0  0  0  0  0  0  0  0  0  0  0  0
   -2.2177   -0.4133    3.0660 H   0  0  0  0  0  0  0  0  0  0  0  0
    0.2351   -0.5428    3.2015 H   0  0  0  0  0  0  0  0  0  0  0  0
    4.6789   -2.1426   -1.2050 H   0  0  0  0  0  0  0  0  0  0  0  0
    5.4421   -2.6266    0.3465 H   0  0  0  0  0  0  0  0  0  0  0  0
    6.1795   -0.3560   -1.5744 H   0  0  0  0  0  0  0  0  0  0  0  0
    7.1781   -1.7133   -0.9671 H   0  0  0  0  0  0  0  0  0  0  0  0
    6.7544    1.0413    0.1370 H   0  0  0  0  0  0  0  0  0  0  0  0
    6.4940   -1.2646    2.1772 H   0  0  0  0  0  0  0  0  0  0  0  0
    6.5503    0.4950    2.5462 H   0  0  0  0  0  0  0  0  0  0  0  0
    4.2391   -0.4661    2.5605 H   0  0  0  0  0  0  0  0  0  0  0  0
    4.4636    0.9477    1.4635 H   0  0  0  0  0  0  0  0  0  0  0  0
    9.1399    1.4309   -0.6794 H   0  0  0  0  0  0  0  0  0  0  0  0
    8.6526   -0.0197   -1.5995 H   0  0  0  0  0  0  0  0  0  0  0  0
   11.2291    0.5447   -1.2424 H   0  0  0  0  0  0  0  0  0  0  0  0
   10.6462   -1.1553   -1.2589 H   0  0  0  0  0  0  0  0  0  0  0  0
   12.2807   -0.3209    0.6895 H   0  0  0  0  0  0  0  0  0  0  0  0
   10.9243   -1.4481    1.0485 H   0  0  0  0  0  0  0  0  0  0  0  0
   10.8642    1.6136    1.3852 H   0  0  0  0  0  0  0  0  0  0  0  0
   11.0030    0.4084    2.7099 H   0  0  0  0  0  0  0  0  0  0  0  0
    8.6102    1.4903    1.8904 H   0  0  0  0  0  0  0  0  0  0  0  0
    8.7869   -0.1420    2.6465 H   0  0  0  0  0  0  0  0  0  0  0  0
    0.5547    0.0517   -1.0242 H   0  0  0  0  0  0  0  0  0  0  0  0
  -10.6619    1.5061    1.0158 H   0  0  0  0  0  0  0  0  0  0  0  0
   -8.1905    0.1607    2.5840 H   0  0  0  0  0  0  0  0  0  0  0  0
   -8.7329   -1.4728    2.0649 H   0  0  0  0  0  0  0  0  0  0  0  0
  -11.1274   -0.6982    2.7248 H   0  0  0  0  0  0  0  0  0  0  0  0
  -10.3812    0.8495    3.2824 H   0  0  0  0  0  0  0  0  0  0  0  0
   -9.9303   -0.7031    4.0582 H   0  0  0  0  0  0  0  0  0  0  0  0
   -9.6302    0.1055   -3.2566 H   0  0  0  0  0  0  0  0  0  0  0  0
   -9.9819    1.4213   -2.0773 H   0  0  0  0  0  0  0  0  0  0  0  0
  1  2  1  0
  2  3  1  0
  3  4  2  0
  4  5  1  0
  5  6  1  0
  6  7  1  0
  7  8  2  0
  7  9  1  0
  9 10  2  0
 10 11  1  0
 11 12  2  0
 12  6  1  0
 12 13  1  0
 13  4  1  0
 13 14  2  0
 14 15  1  0
 15 16  2  0
 16 17  1  0
 17 18  2  0
 18 19  1  0
 19 20  1  0
 20 21  2  0
 20 22  1  0
 22 23  1  0
 23 24  1  0
 24 25  1  0
 25 26  1  0
 26 27  1  0
 27 22  1  0
 25 28  1  0
 28 29  1  0
 29 30  1  0
 30 31  1  0
 31 32  1  0
 32 33  1  0
 33 28  1  0
 18 34  1  0
 34 35  2  0
 35  3  1  0
 35 15  1  0
 10 36  1  0
 36 37  1  1
 36 38  1  0
 38 39  1  0
 36 40  1  0
 40 41  2  0
 40 42  1  0
 42 43  1  0
 43  9  1  0
  1 44  1  0
  1 45  1  0
  1 46  1  0
  2 47  1  0
  2 48  1  0
  5 49  1  0
  5 50  1  0
 11 51  1  0
 16 52  1  0
 17 53  1  0
 23 54  1  0
 23 55  1  0
 24 56  1  0
 24 57  1  0
 25 58  1  0
 26 59  1  0
 26 60  1  0
 27 61  1  0
 27 62  1  0
 29 63  1  0
 29 64  1  0
 30 65  1  0
 30 66  1  0
 31 67  1  0
 31 68  1  0
 32 69  1  0
 32 70  1  0
 33 71  1  0
 33 72  1  0
 34 73  1  0
 37 74  1  0
 38 75  1  0
 38 76  1  0
 39 77  1  0
 39 78  1  0
 39 79  1  0
 43 80  1  0
 43 81  1  0
M  END
> <ID>
HT1124

> <Class>
1.0

> <Clusters>
241

> <Fold>
4

$$$$