
     RDKit          3D

 53 53  0  0  0  0  0  0  0  0999 V2000
    0.5283    3.4880    0.3867 C   0  0  0  0  0  0  0  0  0  0  0  0
    0.3595    2.5573    1.5057 N   0  0  0  0  0  0  0  0  0  0  0  0
    0.3107    3.0278    2.8713 C   0  0  0  0  0  0  0  0  0  0  0  0
    0.1907    2.1953    3.8136 O   0  0  0  0  0  0  0  0  0  0  0  0
    0.4372    4.4918    3.1983 C   0  0  0  0  0  0  0  0  0  0  0  0
    0.1186    4.7225    4.5435 O   0  0  0  0  0  0  0  0  0  0  0  0
    0.2141    1.1551    1.2223 C   0  0  0  0  0  0  0  0  0  0  0  0
    1.3548    0.3627    1.0113 C   0  0  0  0  0  0  0  0  0  0  0  0
    3.2858    1.2486    1.2593 I   0  0  0  0  0  0  0  0  0  0  0  0
    1.2160   -1.0044    0.6958 C   0  0  0  0  0  0  0  0  0  0  0  0
    2.4142   -1.8250    0.4268 C   0  0  0  0  0  0  0  0  0  0  0  0
    2.6740   -2.8104    1.1687 O   0  0  0  0  0  0  0  0  0  0  0  0
    3.2762   -1.5005   -0.6720 N   0  0  0  0  0  0  0  0  0  0  0  0
    4.5000   -2.2555   -0.9397 C   0  0  0  0  0  0  0  0  0  0  0  0
    5.4508   -1.4589   -1.8454 C   0  0  0  0  0  0  0  0  0  0  0  0
    5.8115   -0.2665   -1.1941 O   0  0  0  0  0  0  0  0  0  0  0  0
    6.7092   -2.2802   -2.1550 C   0  0  0  0  0  0  0  0  0  0  0  0
    7.5704   -1.5426   -2.9812 O   0  0  0  0  0  0  0  0  0  0  0  0
   -0.0712   -1.5823    0.6295 C   0  0  0  0  0  0  0  0  0  0  0  0
   -0.3063   -3.6357    0.0567 I   0  0  0  0  0  0  0  0  0  0  0  0
   -1.2136   -0.7881    0.8688 C   0  0  0  0  0  0  0  0  0  0  0  0
   -2.5566   -1.3961    0.8460 C   0  0  0  0  0  0  0  0  0  0  0  0
   -2.8583   -2.2597    1.7150 O   0  0  0  0  0  0  0  0  0  0  0  0
   -3.5102   -1.0022   -0.1501 N   0  0  0  0  0  0  0  0  0  0  0  0
   -4.8682   -1.5483   -0.1933 C   0  0  0  0  0  0  0  0  0  0  0  0
   -5.8635   -0.4852   -0.6912 C   0  0  0  0  0  0  0  0  0  0  0  0
   -5.5429   -0.0715   -1.9951 O   0  0  0  0  0  0  0  0  0  0  0  0
   -7.3074   -1.0016   -0.6231 C   0  0  0  0  0  0  0  0  0  0  0  0
   -8.1847   -0.0154   -1.0903 O   0  0  0  0  0  0  0  0  0  0  0  0
   -1.0685    0.5861    1.1503 C   0  0  0  0  0  0  0  0  0  0  0  0
   -2.7744    1.8190    1.5230 I   0  0  0  0  0  0  0  0  0  0  0  0
   -0.3306    4.1890    0.3461 H   0  0  0  0  0  0  0  0  0  0  0  0
    1.4729    4.0603    0.5086 H   0  0  0  0  0  0  0  0  0  0  0  0
    0.5729    2.9446   -0.5813 H   0  0  0  0  0  0  0  0  0  0  0  0
    1.4841    4.8137    3.0034 H   0  0  0  0  0  0  0  0  0  0  0  0
   -0.2547    5.0761    2.5535 H   0  0  0  0  0  0  0  0  0  0  0  0
    0.1678    5.7055    4.6730 H   0  0  0  0  0  0  0  0  0  0  0  0
    3.0188   -0.6977   -1.2879 H   0  0  0  0  0  0  0  0  0  0  0  0
    4.2261   -3.2150   -1.4275 H   0  0  0  0  0  0  0  0  0  0  0  0
    5.0179   -2.4805    0.0207 H   0  0  0  0  0  0  0  0  0  0  0  0
    4.9221   -1.2364   -2.8036 H   0  0  0  0  0  0  0  0  0  0  0  0
    6.0452    0.3913   -1.8970 H   0  0  0  0  0  0  0  0  0  0  0  0
    7.2238   -2.5421   -1.2009 H   0  0  0  0  0  0  0  0  0  0  0  0
    6.4223   -3.2203   -2.6756 H   0  0  0  0  0  0  0  0  0  0  0  0
    8.4363   -2.0319   -2.9853 H   0  0  0  0  0  0  0  0  0  0  0  0
   -3.1783   -0.4083   -0.9437 H   0  0  0  0  0  0  0  0  0  0  0  0
   -5.1784   -1.8757    0.8249 H   0  0  0  0  0  0  0  0  0  0  0  0
   -4.8819   -2.4348   -0.8638 H   0  0  0  0  0  0  0  0  0  0  0  0
   -5.7866    0.4005   -0.0212 H   0  0  0  0  0  0  0  0  0  0  0  0
   -5.6291   -0.8562   -2.5957 H   0  0  0  0  0  0  0  0  0  0  0  0
   -7.5520   -1.2534    0.4332 H   0  0  0  0  0  0  0  0  0  0  0  0
   -7.4163   -1.9189   -1.2430 H   0  0  0  0  0  0  0  0  0  0  0  0
   -9.0987   -0.3339   -0.8739 H   0  0  0  0  0  0  0  0  0  0  0  0
  1  2  1  0
  2  3  1  0
  3  4  2  0
  3  5  1  0
  5  6  1  0
  2  7  1  0
  7  8  2  0
  8  9  1  0
  8 10  1  0
 10 11  1  0
 11 12  2  0
 11 13  1  0
 13 14  1  0
 14 15  1  0
 15 16  1  0
 15 17  1  0
 17 18  1  0
 10 19  2  0
 19 20  1  0
 19 21  1  0
 21 22  1  0
 22 23  2  0
 22 24  1  0
 24 25  1  0
 25 26  1  0
 26 27  1  0
 26 28  1  0
 28 29  1  0
 21 30  2  0
 30  7  1  0
 30 31  1  0
  1 32  1  0
  1 33  1  0
  1 34  1  0
  5 35  1  0
  5 36  1  0
  6 37  1  0
 13 38  1  0
 14 39  1  0
 14 40  1  0
 15 41  1  0
 16 42  1  0
 17 43  1  0
 17 44  1  0
 18 45  1  0
 24 46  1  0
 25 47  1  0
 25 48  1  0
 26 49  1  0
 27 50  1  0
 28 51  1  0
 28 52  1  0
 29 53  1  0
M  END
> <ID>
HT1110

> <Class>
1.0

> <Clusters>
134

> <Fold>
4

$$$$