
     RDKit          3D

 26 27  0  0  0  0  0  0  0  0999 V2000
   -4.6234    0.9400    0.8811 N   0  0  0  0  0  0  0  0  0  0  0  0
   -3.3174    0.5443    0.4615 C   0  0  0  0  0  0  0  0  0  0  0  0
   -2.2421    0.8333    1.2364 N   0  0  0  0  0  0  0  0  0  0  0  0
   -0.9843    0.4735    0.8692 C   0  0  0  0  0  0  0  0  0  0  0  0
   -0.0235    0.7548    1.6353 O   0  0  0  0  0  0  0  0  0  0  0  0
   -0.7717   -0.1908   -0.3161 N   0  0  0  0  0  0  0  0  0  0  0  0
   -1.8426   -0.5099   -1.1059 C   0  0  0  0  0  0  0  0  0  0  0  0
   -3.1349   -0.1438   -0.7358 C   0  0  0  0  0  0  0  0  0  0  0  0
    0.5783   -0.6165   -0.7394 C   0  0  2  0  0  0  0  0  0  0  0  0
    1.0224   -1.8468    0.0332 C   0  0  0  0  0  0  0  0  0  0  0  0
    2.8192   -1.8515   -0.0227 S   0  0  0  0  0  0  0  0  0  0  0  0
    2.7962   -0.1426   -0.6586 C   0  0  2  0  0  0  0  0  0  0  0  0
    3.8050    0.7065    0.1141 C   0  0  0  0  0  0  0  0  0  0  0  0
    3.8749    1.9980   -0.4276 O   0  0  0  0  0  0  0  0  0  0  0  0
    1.5091    0.4162   -0.5312 O   0  0  0  0  0  0  0  0  0  0  0  0
   -4.7535    1.4533    1.7810 H   0  0  0  0  0  0  0  0  0  0  0  0
   -5.4632    0.7242    0.2987 H   0  0  0  0  0  0  0  0  0  0  0  0
   -1.7051   -1.0531   -2.0335 H   0  0  0  0  0  0  0  0  0  0  0  0
   -3.9765   -0.3947   -1.3692 H   0  0  0  0  0  0  0  0  0  0  0  0
    0.5769   -0.8624   -1.8288 H   0  0  0  0  0  0  0  0  0  0  0  0
    0.7048   -1.7952    1.0959 H   0  0  0  0  0  0  0  0  0  0  0  0
    0.6183   -2.7719   -0.4295 H   0  0  0  0  0  0  0  0  0  0  0  0
    3.0858   -0.1601   -1.7329 H   0  0  0  0  0  0  0  0  0  0  0  0
    3.5287    0.7479    1.1931 H   0  0  0  0  0  0  0  0  0  0  0  0
    4.8105    0.2408    0.0374 H   0  0  0  0  0  0  0  0  0  0  0  0
    3.1079    2.5065   -0.0552 H   0  0  0  0  0  0  0  0  0  0  0  0
  1  2  1  0
  2  3  2  0
  3  4  1  0
  4  5  2  0
  4  6  1  0
  6  7  1  0
  7  8  2  0
  8  2  1  0
  9  6  1  0
  9 10  1  0
 10 11  1  0
 11 12  1  0
 12 13  1  0
 13 14  1  0
 12 15  1  0
 15  9  1  0
  1 16  1  0
  1 17  1  0
  7 18  1  0
  8 19  1  0
  9 20  1  6
 10 21  1  0
 10 22  1  0
 12 23  1  6
 13 24  1  0
 13 25  1  0
 14 26  1  0
M  END
> <ID>
HT1168

> <Class>
1.0

> <Clusters>
144

> <Fold>
4

$$$$