
     RDKit          3D

 60 63  0  0  0  0  0  0  0  0999 V2000
   -3.2697   -1.1582    1.7249 C   0  0  0  0  0  0  0  0  0  0  0  0
   -2.5497   -1.1902    0.3596 C   0  0  2  0  0  0  0  0  0  0  0  0
   -1.1506   -0.5616    0.4824 C   0  0  0  0  0  0  0  0  0  0  0  0
   -0.3874   -0.8310   -0.7553 N   0  0  0  0  0  0  0  0  0  0  0  0
   -1.0371   -0.3311   -1.9954 C   0  0  0  0  0  0  0  0  0  0  0  0
   -2.4339    0.2796   -1.7692 C   0  0  0  0  0  0  0  0  0  0  0  0
   -3.3676   -0.6095   -0.8767 C   0  0  1  0  0  0  0  0  0  0  0  0
   -3.8598   -1.8079   -1.7072 C   0  0  0  0  0  0  0  0  0  0  0  0
   -3.6254   -1.8846   -2.9437 O   0  0  0  0  0  0  0  0  0  0  0  0
   -4.5971   -2.8340   -1.1170 O   0  0  0  0  0  0  0  0  0  0  0  0
   -4.5593    0.2880   -0.4479 C   0  0  0  0  0  0  0  0  0  0  0  0
   -5.8930    0.0394   -0.8609 C   0  0  0  0  0  0  0  0  0  0  0  0
   -6.9373    0.8814   -0.4674 C   0  0  0  0  0  0  0  0  0  0  0  0
   -6.6808    1.9941    0.3310 C   0  0  0  0  0  0  0  0  0  0  0  0
   -5.3767    2.2738    0.7331 C   0  0  0  0  0  0  0  0  0  0  0  0
   -4.3273    1.4379    0.3441 C   0  0  0  0  0  0  0  0  0  0  0  0
    1.0644   -0.5139   -0.6949 C   0  0  2  0  0  0  0  0  0  0  0  0
    1.8304   -1.5675    0.1269 C   0  0  0  0  0  0  0  0  0  0  0  0
    3.3448   -1.2961    0.0821 C   0  0  0  0  0  0  0  0  0  0  0  0
    3.7122    0.1396    0.5572 C   0  0  1  0  0  0  0  0  0  0  0  0
    2.8725    1.1962   -0.2181 C   0  0  0  0  0  0  0  0  0  0  0  0
    1.3625    0.9070   -0.1666 C   0  0  0  0  0  0  0  0  0  0  0  0
    3.3703    0.2480    1.9986 C   0  0  0  0  0  0  0  0  0  0  0  0
    3.0984    0.3313    3.1207 N   0  0  0  0  0  0  0  0  0  0  0  0
    5.2155    0.3955    0.3166 C   0  0  0  0  0  0  0  0  0  0  0  0
    5.7367    0.3377   -0.9974 C   0  0  0  0  0  0  0  0  0  0  0  0
    7.0927    0.5648   -1.2471 C   0  0  0  0  0  0  0  0  0  0  0  0
    7.9607    0.8542   -0.1958 C   0  0  0  0  0  0  0  0  0  0  0  0
    9.2759    1.0740   -0.4417 F   0  0  0  0  0  0  0  0  0  0  0  0
    7.4743    0.9172    1.1091 C   0  0  0  0  0  0  0  0  0  0  0  0
    6.1192    0.6915    1.3682 C   0  0  0  0  0  0  0  0  0  0  0  0
   -4.3280   -1.4751    1.6338 H   0  0  0  0  0  0  0  0  0  0  0  0
   -2.7685   -1.8570    2.4287 H   0  0  0  0  0  0  0  0  0  0  0  0
   -3.2319   -0.1490    2.1826 H   0  0  0  0  0  0  0  0  0  0  0  0
   -2.3471   -2.2712    0.1749 H   0  0  0  0  0  0  0  0  0  0  0  0
   -0.6376   -1.0144    1.3555 H   0  0  0  0  0  0  0  0  0  0  0  0
   -1.2367    0.5298    0.6705 H   0  0  0  0  0  0  0  0  0  0  0  0
   -1.1210   -1.1798   -2.7054 H   0  0  0  0  0  0  0  0  0  0  0  0
   -0.4174    0.4429   -2.5014 H   0  0  0  0  0  0  0  0  0  0  0  0
   -2.2717    1.2773   -1.3102 H   0  0  0  0  0  0  0  0  0  0  0  0
   -2.9107    0.4914   -2.7517 H   0  0  0  0  0  0  0  0  0  0  0  0
   -4.8577   -2.8154   -0.1406 H   0  0  0  0  0  0  0  0  0  0  0  0
   -6.1492   -0.7946   -1.4970 H   0  0  0  0  0  0  0  0  0  0  0  0
   -7.9495    0.6722   -0.7889 H   0  0  0  0  0  0  0  0  0  0  0  0
   -7.4922    2.6439    0.6325 H   0  0  0  0  0  0  0  0  0  0  0  0
   -5.1762    3.1424    1.3470 H   0  0  0  0  0  0  0  0  0  0  0  0
   -3.3296    1.6906    0.6747 H   0  0  0  0  0  0  0  0  0  0  0  0
    1.4804   -0.5818   -1.7280 H   0  0  0  0  0  0  0  0  0  0  0  0
    1.4965   -1.5741    1.1845 H   0  0  0  0  0  0  0  0  0  0  0  0
    1.6317   -2.5769   -0.2944 H   0  0  0  0  0  0  0  0  0  0  0  0
    3.8664   -2.0487    0.7144 H   0  0  0  0  0  0  0  0  0  0  0  0
    3.6857   -1.4638   -0.9615 H   0  0  0  0  0  0  0  0  0  0  0  0
    3.0616    2.2100    0.2000 H   0  0  0  0  0  0  0  0  0  0  0  0
    3.1717    1.2294   -1.2871 H   0  0  0  0  0  0  0  0  0  0  0  0
    0.8297    1.6590   -0.7870 H   0  0  0  0  0  0  0  0  0  0  0  0
    1.0116    1.0212    0.8808 H   0  0  0  0  0  0  0  0  0  0  0  0
    5.0976    0.1160   -1.8411 H   0  0  0  0  0  0  0  0  0  0  0  0
    7.4695    0.5155   -2.2607 H   0  0  0  0  0  0  0  0  0  0  0  0
    8.1487    1.1419    1.9256 H   0  0  0  0  0  0  0  0  0  0  0  0
    5.7959    0.7526    2.3975 H   0  0  0  0  0  0  0  0  0  0  0  0
  2  1  1  0
  2  3  1  0
  3  4  1  0
  4  5  1  0
  5  6  1  0
  6  7  1  0
  7  2  1  0
  7  8  1  6
  8  9  2  0
  8 10  1  0
  7 11  1  0
 11 12  2  0
 12 13  1  0
 13 14  2  0
 14 15  1  0
 15 16  2  0
 16 11  1  0
 17  4  1  0
 17 18  1  0
 18 19  1  0
 19 20  1  0
 20 21  1  0
 21 22  1  0
 22 17  1  0
 20 23  1  1
 23 24  3  0
 20 25  1  0
 25 26  2  0
 26 27  1  0
 27 28  2  0
 28 29  1  0
 28 30  1  0
 30 31  2  0
 31 25  1  0
  1 32  1  0
  1 33  1  0
  1 34  1  0
  2 35  1  6
  3 36  1  0
  3 37  1  0
  5 38  1  0
  5 39  1  0
  6 40  1  0
  6 41  1  0
 10 42  1  0
 12 43  1  0
 13 44  1  0
 14 45  1  0
 15 46  1  0
 16 47  1  0
 17 48  1  6
 18 49  1  0
 18 50  1  0
 19 51  1  0
 19 52  1  0
 21 53  1  0
 21 54  1  0
 22 55  1  0
 22 56  1  0
 26 57  1  0
 27 58  1  0
 30 59  1  0
 31 60  1  0
M  END
> <ID>
HT1194

> <Class>
1.0

> <Clusters>
124

> <Fold>
4

$$$$