
     RDKit          3D

 63 67  0  0  0  0  0  0  0  0999 V2000
   -2.8982   -4.3356   -2.9548 C   0  0  0  0  0  0  0  0  0  0  0  0
   -2.4294   -3.5941   -1.7847 C   0  0  0  0  0  0  0  0  0  0  0  0
   -2.0434   -2.9808   -0.8219 C   0  0  0  0  0  0  0  0  0  0  0  0
   -1.5765   -2.2281    0.3455 C   0  0  0  0  0  0  0  0  0  0  0  0
   -1.4960   -0.8024    0.0217 N   0  0  0  0  0  0  0  0  0  0  0  0
   -2.3371    0.1952    0.4116 C   0  0  0  0  0  0  0  0  0  0  0  0
   -1.9100    1.4361    0.0608 N   0  0  0  0  0  0  0  0  0  0  0  0
   -0.7527    1.1813   -0.5785 C   0  0  0  0  0  0  0  0  0  0  0  0
    0.0934    2.0971   -1.1225 N   0  0  0  0  0  0  0  0  0  0  0  0
   -0.2263    3.5309   -1.0893 C   0  0  0  0  0  0  0  0  0  0  0  0
    1.2256    1.6355   -1.7572 C   0  0  0  0  0  0  0  0  0  0  0  0
    2.0216    2.4619   -2.2870 O   0  0  0  0  0  0  0  0  0  0  0  0
    1.5013    0.2789   -1.8188 N   0  0  0  0  0  0  0  0  0  0  0  0
    2.7425   -0.1884   -2.4664 C   0  0  0  0  0  0  0  0  0  0  0  0
    3.8791   -0.1421   -1.4929 C   0  0  0  0  0  0  0  0  0  0  0  0
    4.9246    0.6996   -1.7045 N   0  0  0  0  0  0  0  0  0  0  0  0
    5.9689    0.7772   -0.8365 C   0  0  0  0  0  0  0  0  0  0  0  0
    7.0838    1.7344   -1.1436 C   0  0  0  0  0  0  0  0  0  0  0  0
    5.9691   -0.0363    0.3178 C   0  0  0  0  0  0  0  0  0  0  0  0
    7.0078   -0.0182    1.2700 C   0  0  0  0  0  0  0  0  0  0  0  0
    6.9461   -0.8497    2.3928 C   0  0  0  0  0  0  0  0  0  0  0  0
    5.8556   -1.7033    2.5784 C   0  0  0  0  0  0  0  0  0  0  0  0
    4.8192   -1.7309    1.6423 C   0  0  0  0  0  0  0  0  0  0  0  0
    4.8701   -0.9035    0.5147 C   0  0  0  0  0  0  0  0  0  0  0  0
    3.8593   -0.9342   -0.3903 N   0  0  0  0  0  0  0  0  0  0  0  0
    0.6475   -0.6288   -1.2317 C   0  0  0  0  0  0  0  0  0  0  0  0
    0.8925   -1.8658   -1.2600 O   0  0  0  0  0  0  0  0  0  0  0  0
   -0.5008   -0.1488   -0.6103 C   0  0  0  0  0  0  0  0  0  0  0  0
   -3.5960   -0.0217    1.0714 N   0  0  0  0  0  0  0  0  0  0  0  0
   -4.5932   -0.9134    0.4562 C   0  0  0  0  0  0  0  0  0  0  0  0
   -6.0250   -0.4307    0.7351 C   0  0  0  0  0  0  0  0  0  0  0  0
   -6.1086    1.0959    0.6083 C   0  0  0  0  0  0  0  0  0  0  0  0
   -5.1486    1.8340    1.5831 C   0  0  1  0  0  0  0  0  0  0  0  0
   -5.8989    2.3973    2.7078 N   0  0  0  0  0  0  0  0  0  0  0  0
   -4.0286    0.9132    2.1151 C   0  0  0  0  0  0  0  0  0  0  0  0
   -2.9127   -5.4206   -2.7240 H   0  0  0  0  0  0  0  0  0  0  0  0
   -2.2156   -4.1481   -3.8090 H   0  0  0  0  0  0  0  0  0  0  0  0
   -3.9221   -4.0000   -3.2193 H   0  0  0  0  0  0  0  0  0  0  0  0
   -0.5832   -2.6059    0.6646 H   0  0  0  0  0  0  0  0  0  0  0  0
   -2.2671   -2.3988    1.1950 H   0  0  0  0  0  0  0  0  0  0  0  0
   -0.6842    3.8318   -2.0549 H   0  0  0  0  0  0  0  0  0  0  0  0
    0.6920    4.1318   -0.9162 H   0  0  0  0  0  0  0  0  0  0  0  0
   -0.9313    3.7714   -0.2651 H   0  0  0  0  0  0  0  0  0  0  0  0
    2.6334   -1.2250   -2.8521 H   0  0  0  0  0  0  0  0  0  0  0  0
    2.9744    0.4369   -3.3566 H   0  0  0  0  0  0  0  0  0  0  0  0
    8.0408    1.1806   -1.2462 H   0  0  0  0  0  0  0  0  0  0  0  0
    6.8868    2.2702   -2.0965 H   0  0  0  0  0  0  0  0  0  0  0  0
    7.1710    2.4867   -0.3316 H   0  0  0  0  0  0  0  0  0  0  0  0
    7.8660    0.6310    1.1566 H   0  0  0  0  0  0  0  0  0  0  0  0
    7.7462   -0.8321    3.1216 H   0  0  0  0  0  0  0  0  0  0  0  0
    5.8136   -2.3442    3.4496 H   0  0  0  0  0  0  0  0  0  0  0  0
    3.9773   -2.3954    1.7947 H   0  0  0  0  0  0  0  0  0  0  0  0
   -4.4769   -1.9446    0.8476 H   0  0  0  0  0  0  0  0  0  0  0  0
   -4.4427   -0.9384   -0.6462 H   0  0  0  0  0  0  0  0  0  0  0  0
   -6.7247   -0.9062    0.0141 H   0  0  0  0  0  0  0  0  0  0  0  0
   -6.3335   -0.7344    1.7596 H   0  0  0  0  0  0  0  0  0  0  0  0
   -5.8470    1.3737   -0.4370 H   0  0  0  0  0  0  0  0  0  0  0  0
   -7.1615    1.4150    0.7685 H   0  0  0  0  0  0  0  0  0  0  0  0
   -4.6671    2.6687    1.0228 H   0  0  0  0  0  0  0  0  0  0  0  0
   -6.5605    3.1166    2.3343 H   0  0  0  0  0  0  0  0  0  0  0  0
   -5.2308    2.9186    3.3213 H   0  0  0  0  0  0  0  0  0  0  0  0
   -4.4042    0.3248    2.9811 H   0  0  0  0  0  0  0  0  0  0  0  0
   -3.1749    1.5239    2.4844 H   0  0  0  0  0  0  0  0  0  0  0  0
  1  2  1  0
  2  3  3  0
  3  4  1  0
  4  5  1  0
  5  6  1  0
  6  7  2  0
  7  8  1  0
  8  9  1  0
  9 10  1  0
  9 11  1  0
 11 12  2  0
 11 13  1  0
 13 14  1  0
 14 15  1  0
 15 16  2  0
 16 17  1  0
 17 18  1  0
 17 19  2  0
 19 20  1  0
 20 21  2  0
 21 22  1  0
 22 23  2  0
 23 24  1  0
 24 19  1  0
 24 25  2  0
 25 15  1  0
 13 26  1  0
 26 27  2  0
 26 28  1  0
 28  5  1  0
 28  8  2  0
  6 29  1  0
 29 30  1  0
 30 31  1  0
 31 32  1  0
 32 33  1  0
 33 34  1  0
 33 35  1  0
 35 29  1  0
  1 36  1  0
  1 37  1  0
  1 38  1  0
  4 39  1  0
  4 40  1  0
 10 41  1  0
 10 42  1  0
 10 43  1  0
 14 44  1  0
 14 45  1  0
 18 46  1  0
 18 47  1  0
 18 48  1  0
 20 49  1  0
 21 50  1  0
 22 51  1  0
 23 52  1  0
 30 53  1  0
 30 54  1  0
 31 55  1  0
 31 56  1  0
 32 57  1  0
 32 58  1  0
 33 59  1  6
 34 60  1  0
 34 61  1  0
 35 62  1  0
 35 63  1  0
M  END
> <ID>
HT1211

> <Class>
1.0

> <Clusters>
232

> <Fold>
4

$$$$