
     RDKit          3D

 60 61  0  0  0  0  0  0  0  0999 V2000
   -2.7760    4.3085   -2.1087 N   0  0  0  0  0  0  0  0  0  0  0  0
   -2.0570    3.5911   -1.0603 C   0  0  0  0  0  0  0  0  0  0  0  0
   -3.0469    2.8500   -0.1549 C   0  0  0  0  0  0  0  0  0  0  0  0
   -2.3662    2.1721    1.0455 C   0  0  0  0  0  0  0  0  0  0  0  0
   -1.5260    0.9450    0.6433 C   0  0  0  0  0  0  0  0  0  0  0  0
   -1.0096    0.1624    1.8814 C   0  0  2  0  0  0  0  0  0  0  0  0
    0.1139    0.8135    2.6111 N   0  0  0  0  0  0  0  0  0  0  0  0
    1.2777    1.4045    1.8931 C   0  0  1  0  0  0  0  0  0  0  0  0
    1.9641    0.4344    0.9000 C   0  0  0  0  0  0  0  0  0  0  0  0
    3.3459    0.9291    0.4318 C   0  0  0  0  0  0  0  0  0  0  0  0
    3.9473   -0.0359   -0.5578 C   0  0  0  0  0  0  0  0  0  0  0  0
    5.0515   -0.8296   -0.2021 C   0  0  0  0  0  0  0  0  0  0  0  0
    5.5974   -1.7303   -1.1229 C   0  0  0  0  0  0  0  0  0  0  0  0
    5.0489   -1.8433   -2.4035 C   0  0  0  0  0  0  0  0  0  0  0  0
    3.9547   -1.0538   -2.7669 C   0  0  0  0  0  0  0  0  0  0  0  0
    3.4058   -0.1515   -1.8502 C   0  0  0  0  0  0  0  0  0  0  0  0
    0.9793    2.7942    1.3555 C   0  0  0  0  0  0  0  0  0  0  0  0
    0.7266    3.7163    2.1753 O   0  0  0  0  0  0  0  0  0  0  0  0
    0.9990    3.1070   -0.0043 O   0  0  0  0  0  0  0  0  0  0  0  0
   -0.7234   -1.2972    1.5846 C   0  0  0  0  0  0  0  0  0  0  0  0
    0.3218   -1.8405    2.0308 O   0  0  0  0  0  0  0  0  0  0  0  0
   -1.6820   -2.1138    0.8908 N   0  0  0  0  0  0  0  0  0  0  0  0
   -3.0967   -2.1343    1.2290 C   0  0  0  0  0  0  0  0  0  0  0  0
   -3.7144   -3.1977    0.3327 C   0  0  0  0  0  0  0  0  0  0  0  0
   -2.5558   -4.0796   -0.1267 C   0  0  0  0  0  0  0  0  0  0  0  0
   -1.2912   -3.2314    0.0393 C   0  0  1  0  0  0  0  0  0  0  0  0
   -0.7669   -2.7492   -1.2886 C   0  0  0  0  0  0  0  0  0  0  0  0
   -0.7946   -1.5255   -1.5914 O   0  0  0  0  0  0  0  0  0  0  0  0
   -0.2395   -3.6695   -2.1893 O   0  0  0  0  0  0  0  0  0  0  0  0
   -3.2872    5.1068   -1.6671 H   0  0  0  0  0  0  0  0  0  0  0  0
   -2.0658    4.7319   -2.7480 H   0  0  0  0  0  0  0  0  0  0  0  0
   -1.3692    2.8612   -1.5370 H   0  0  0  0  0  0  0  0  0  0  0  0
   -1.4566    4.3108   -0.4597 H   0  0  0  0  0  0  0  0  0  0  0  0
   -3.6076    2.0961   -0.7500 H   0  0  0  0  0  0  0  0  0  0  0  0
   -3.7856    3.5826    0.2380 H   0  0  0  0  0  0  0  0  0  0  0  0
   -1.7470    2.9102    1.5937 H   0  0  0  0  0  0  0  0  0  0  0  0
   -3.1710    1.8416    1.7380 H   0  0  0  0  0  0  0  0  0  0  0  0
   -2.1738    0.2911    0.0263 H   0  0  0  0  0  0  0  0  0  0  0  0
   -0.7010    1.2290   -0.0241 H   0  0  0  0  0  0  0  0  0  0  0  0
   -1.8633    0.1083    2.5940 H   0  0  0  0  0  0  0  0  0  0  0  0
   -0.2770    1.5235    3.2749 H   0  0  0  0  0  0  0  0  0  0  0  0
    2.0468    1.5745    2.6799 H   0  0  0  0  0  0  0  0  0  0  0  0
    2.1600   -0.5196    1.4255 H   0  0  0  0  0  0  0  0  0  0  0  0
    1.3094    0.2196    0.0319 H   0  0  0  0  0  0  0  0  0  0  0  0
    4.0090    1.0329    1.3192 H   0  0  0  0  0  0  0  0  0  0  0  0
    3.2870    1.9303   -0.0399 H   0  0  0  0  0  0  0  0  0  0  0  0
    5.4853   -0.7576    0.7879 H   0  0  0  0  0  0  0  0  0  0  0  0
    6.4450   -2.3424   -0.8428 H   0  0  0  0  0  0  0  0  0  0  0  0
    5.4724   -2.5418   -3.1142 H   0  0  0  0  0  0  0  0  0  0  0  0
    3.5318   -1.1409   -3.7593 H   0  0  0  0  0  0  0  0  0  0  0  0
    2.5593    0.4561   -2.1461 H   0  0  0  0  0  0  0  0  0  0  0  0
    1.1517    2.4200   -0.7305 H   0  0  0  0  0  0  0  0  0  0  0  0
   -3.2179   -2.4135    2.2987 H   0  0  0  0  0  0  0  0  0  0  0  0
   -3.5747   -1.1493    1.0486 H   0  0  0  0  0  0  0  0  0  0  0  0
   -4.1799   -2.7111   -0.5531 H   0  0  0  0  0  0  0  0  0  0  0  0
   -4.4853   -3.7879    0.8749 H   0  0  0  0  0  0  0  0  0  0  0  0
   -2.7128   -4.4347   -1.1698 H   0  0  0  0  0  0  0  0  0  0  0  0
   -2.4912   -4.9692    0.5392 H   0  0  0  0  0  0  0  0  0  0  0  0
   -0.5017   -3.8340    0.5406 H   0  0  0  0  0  0  0  0  0  0  0  0
    0.1232   -3.3693   -3.0865 H   0  0  0  0  0  0  0  0  0  0  0  0
  1  2  1  0
  2  3  1  0
  3  4  1  0
  4  5  1  0
  6  5  1  0
  6  7  1  0
  7  8  1  0
  8  9  1  0
  9 10  1  0
 10 11  1  0
 11 12  2  0
 12 13  1  0
 13 14  2  0
 14 15  1  0
 15 16  2  0
 16 11  1  0
  8 17  1  0
 17 18  2  0
 17 19  1  0
  6 20  1  0
 20 21  2  0
 20 22  1  0
 22 23  1  0
 23 24  1  0
 24 25  1  0
 25 26  1  0
 26 22  1  0
 26 27  1  0
 27 28  2  0
 27 29  1  0
  1 30  1  0
  1 31  1  0
  2 32  1  0
  2 33  1  0
  3 34  1  0
  3 35  1  0
  4 36  1  0
  4 37  1  0
  5 38  1  0
  5 39  1  0
  6 40  1  1
  7 41  1  0
  8 42  1  1
  9 43  1  0
  9 44  1  0
 10 45  1  0
 10 46  1  0
 12 47  1  0
 13 48  1  0
 14 49  1  0
 15 50  1  0
 16 51  1  0
 19 52  1  0
 23 53  1  0
 23 54  1  0
 24 55  1  0
 24 56  1  0
 25 57  1  0
 25 58  1  0
 26 59  1  1
 29 60  1  0
M  END
> <ID>
HT1218

> <Class>
1.0

> <Clusters>
94

> <Fold>
4

$$$$