
     RDKit          3D

 37 37  0  0  0  0  0  0  0  0999 V2000
   -3.1937   -2.3513   -1.0303 N   0  0  0  0  0  0  0  0  0  0  0  0
   -3.8038   -1.0501   -0.7457 C   0  0  1  0  0  0  0  0  0  0  0  0
   -3.2578   -0.4662    0.5748 C   0  0  0  0  0  0  0  0  0  0  0  0
   -1.7702   -0.2052    0.5283 C   0  0  0  0  0  0  0  0  0  0  0  0
   -1.2850    1.0857    0.2652 C   0  0  0  0  0  0  0  0  0  0  0  0
    0.0904    1.3266    0.2137 C   0  0  0  0  0  0  0  0  0  0  0  0
    1.0027    0.2821    0.4294 C   0  0  0  0  0  0  0  0  0  0  0  0
    0.5178   -1.0065    0.7021 C   0  0  0  0  0  0  0  0  0  0  0  0
   -0.8577   -1.2476    0.7545 C   0  0  0  0  0  0  0  0  0  0  0  0
    2.4211    0.5290    0.3662 N   0  0  0  0  0  0  0  0  0  0  0  0
    3.2588   -0.2472   -0.5616 C   0  0  0  0  0  0  0  0  0  0  0  0
    2.9051    0.0678   -2.0153 C   0  0  0  0  0  0  0  0  0  0  0  0
    3.2115    1.7850   -2.3864 Cl  0  0  0  0  0  0  0  0  0  0  0  0
    3.0241    1.5511    1.2344 C   0  0  0  0  0  0  0  0  0  0  0  0
    2.9794    1.1037    2.6934 C   0  0  0  0  0  0  0  0  0  0  0  0
    3.7532    2.3248    3.7343 Cl  0  0  0  0  0  0  0  0  0  0  0  0
   -3.5803   -0.0944   -1.8899 C   0  0  0  0  0  0  0  0  0  0  0  0
   -4.1799    1.0141   -1.9053 O   0  0  0  0  0  0  0  0  0  0  0  0
   -2.7111   -0.4222   -2.9274 O   0  0  0  0  0  0  0  0  0  0  0  0
   -3.6571   -2.7535   -1.8779 H   0  0  0  0  0  0  0  0  0  0  0  0
   -3.4254   -3.0021   -0.2447 H   0  0  0  0  0  0  0  0  0  0  0  0
   -4.9026   -1.1921   -0.6314 H   0  0  0  0  0  0  0  0  0  0  0  0
   -3.8014    0.4767    0.8055 H   0  0  0  0  0  0  0  0  0  0  0  0
   -3.4847   -1.1617    1.4123 H   0  0  0  0  0  0  0  0  0  0  0  0
   -1.9717    1.9036    0.0861 H   0  0  0  0  0  0  0  0  0  0  0  0
    0.4424    2.3236   -0.0163 H   0  0  0  0  0  0  0  0  0  0  0  0
    1.2033   -1.8218    0.8919 H   0  0  0  0  0  0  0  0  0  0  0  0
   -1.2109   -2.2469    0.9756 H   0  0  0  0  0  0  0  0  0  0  0  0
    4.3378   -0.0348   -0.4006 H   0  0  0  0  0  0  0  0  0  0  0  0
    3.1200   -1.3332   -0.3779 H   0  0  0  0  0  0  0  0  0  0  0  0
    1.8374   -0.1651   -2.2129 H   0  0  0  0  0  0  0  0  0  0  0  0
    3.5289   -0.5564   -2.6891 H   0  0  0  0  0  0  0  0  0  0  0  0
    4.0818    1.7378    0.9482 H   0  0  0  0  0  0  0  0  0  0  0  0
    2.4854    2.5152    1.1202 H   0  0  0  0  0  0  0  0  0  0  0  0
    1.9269    0.9725    3.0223 H   0  0  0  0  0  0  0  0  0  0  0  0
    3.5178    0.1391    2.8088 H   0  0  0  0  0  0  0  0  0  0  0  0
   -2.5525    0.2197   -3.6949 H   0  0  0  0  0  0  0  0  0  0  0  0
  2  1  1  0
  2  3  1  0
  3  4  1  0
  4  5  2  0
  5  6  1  0
  6  7  2  0
  7  8  1  0
  8  9  2  0
  9  4  1  0
  7 10  1  0
 10 11  1  0
 11 12  1  0
 12 13  1  0
 10 14  1  0
 14 15  1  0
 15 16  1  0
  2 17  1  0
 17 18  2  0
 17 19  1  0
  1 20  1  0
  1 21  1  0
  2 22  1  1
  3 23  1  0
  3 24  1  0
  5 25  1  0
  6 26  1  0
  8 27  1  0
  9 28  1  0
 11 29  1  0
 11 30  1  0
 12 31  1  0
 12 32  1  0
 14 33  1  0
 14 34  1  0
 15 35  1  0
 15 36  1  0
 19 37  1  0
M  END
> <ID>
HT1296

> <Class>
1.0

> <Clusters>
48

> <Fold>
4

$$$$