
     RDKit          3D

 50 53  0  0  0  0  0  0  0  0999 V2000
    7.0276    0.6251   -0.4868 C   0  0  0  0  0  0  0  0  0  0  0  0
    6.1992    0.7640    0.7858 C   0  0  0  0  0  0  0  0  0  0  0  0
    4.8048    0.7005    0.4923 O   0  0  0  0  0  0  0  0  0  0  0  0
    4.1395   -0.4820    0.1422 C   0  0  0  0  0  0  0  0  0  0  0  0
    4.7588   -1.5817    0.1496 O   0  0  0  0  0  0  0  0  0  0  0  0
    2.7462   -0.4353   -0.2170 N   0  0  0  0  0  0  0  0  0  0  0  0
    2.0938    0.8780   -0.3508 C   0  0  0  0  0  0  0  0  0  0  0  0
    0.6643    0.7494   -0.8854 C   0  0  0  0  0  0  0  0  0  0  0  0
   -0.0846   -0.3008   -0.0885 C   0  0  0  0  0  0  0  0  0  0  0  0
   -1.3302   -0.0953    0.4211 C   0  0  0  0  0  0  0  0  0  0  0  0
   -2.0282    1.2122    0.3528 C   0  0  0  0  0  0  0  0  0  0  0  0
   -1.4286    2.3035    1.0109 C   0  0  0  0  0  0  0  0  0  0  0  0
   -2.0278    3.5609    1.0077 C   0  0  0  0  0  0  0  0  0  0  0  0
   -3.2520    3.7472    0.3724 C   0  0  0  0  0  0  0  0  0  0  0  0
   -4.0079    5.3304    0.3735 Cl  0  0  0  0  0  0  0  0  0  0  0  0
   -3.8887    2.6693   -0.2448 C   0  0  0  0  0  0  0  0  0  0  0  0
   -3.3076    1.3862   -0.2593 C   0  0  0  0  0  0  0  0  0  0  0  0
   -4.1649    0.2880   -0.8857 C   0  0  0  0  0  0  0  0  0  0  0  0
   -3.5548   -1.1069   -1.0669 C   0  0  0  0  0  0  0  0  0  0  0  0
   -3.1930   -1.7198    0.2590 C   0  0  0  0  0  0  0  0  0  0  0  0
   -3.9124   -2.8005    0.7883 C   0  0  0  0  0  0  0  0  0  0  0  0
   -3.5426   -3.3456    2.0196 C   0  0  0  0  0  0  0  0  0  0  0  0
   -2.4539   -2.8060    2.7081 C   0  0  0  0  0  0  0  0  0  0  0  0
   -1.7629   -1.7621    2.1785 N   0  0  0  0  0  0  0  0  0  0  0  0
   -2.1048   -1.2144    0.9801 C   0  0  0  0  0  0  0  0  0  0  0  0
    0.6083   -1.6425    0.0793 C   0  0  0  0  0  0  0  0  0  0  0  0
    2.0081   -1.6654   -0.5516 C   0  0  0  0  0  0  0  0  0  0  0  0
    6.8752   -0.3746   -0.9437 H   0  0  0  0  0  0  0  0  0  0  0  0
    6.7335    1.4082   -1.2172 H   0  0  0  0  0  0  0  0  0  0  0  0
    8.1048    0.7448   -0.2454 H   0  0  0  0  0  0  0  0  0  0  0  0
    6.4178    1.7515    1.2440 H   0  0  0  0  0  0  0  0  0  0  0  0
    6.4766   -0.0251    1.5179 H   0  0  0  0  0  0  0  0  0  0  0  0
    2.0671    1.3761    0.6429 H   0  0  0  0  0  0  0  0  0  0  0  0
    2.6789    1.5164   -1.0482 H   0  0  0  0  0  0  0  0  0  0  0  0
    0.7069    0.4163   -1.9449 H   0  0  0  0  0  0  0  0  0  0  0  0
    0.1852    1.7462   -0.8984 H   0  0  0  0  0  0  0  0  0  0  0  0
   -0.4829    2.1790    1.5254 H   0  0  0  0  0  0  0  0  0  0  0  0
   -1.5402    4.3895    1.5055 H   0  0  0  0  0  0  0  0  0  0  0  0
   -4.8566    2.8303   -0.7053 H   0  0  0  0  0  0  0  0  0  0  0  0
   -5.0896    0.1830   -0.2761 H   0  0  0  0  0  0  0  0  0  0  0  0
   -4.4857    0.6357   -1.8923 H   0  0  0  0  0  0  0  0  0  0  0  0
   -2.6616   -1.0544   -1.7270 H   0  0  0  0  0  0  0  0  0  0  0  0
   -4.2993   -1.7460   -1.5901 H   0  0  0  0  0  0  0  0  0  0  0  0
   -4.7572   -3.2164    0.2537 H   0  0  0  0  0  0  0  0  0  0  0  0
   -4.0944   -4.1780    2.4366 H   0  0  0  0  0  0  0  0  0  0  0  0
   -2.1567   -3.2188    3.6628 H   0  0  0  0  0  0  0  0  0  0  0  0
   -0.0066   -2.4470   -0.3795 H   0  0  0  0  0  0  0  0  0  0  0  0
    0.7190   -1.8551    1.1645 H   0  0  0  0  0  0  0  0  0  0  0  0
    1.9200   -1.7473   -1.6566 H   0  0  0  0  0  0  0  0  0  0  0  0
    2.5401   -2.5705   -0.1878 H   0  0  0  0  0  0  0  0  0  0  0  0
  1  2  1  0
  2  3  1  0
  3  4  1  0
  4  5  2  0
  4  6  1  0
  6  7  1  0
  7  8  1  0
  8  9  1  0
  9 10  2  3
 10 11  1  0
 11 12  2  0
 12 13  1  0
 13 14  2  0
 14 15  1  0
 14 16  1  0
 16 17  2  0
 17 11  1  0
 17 18  1  0
 18 19  1  0
 19 20  1  0
 20 21  2  0
 21 22  1  0
 22 23  2  0
 23 24  1  0
 24 25  2  0
 25 10  1  0
 25 20  1  0
  9 26  1  0
 26 27  1  0
 27  6  1  0
  1 28  1  0
  1 29  1  0
  1 30  1  0
  2 31  1  0
  2 32  1  0
  7 33  1  0
  7 34  1  0
  8 35  1  0
  8 36  1  0
 12 37  1  0
 13 38  1  0
 16 39  1  0
 18 40  1  0
 18 41  1  0
 19 42  1  0
 19 43  1  0
 21 44  1  0
 22 45  1  0
 23 46  1  0
 26 47  1  0
 26 48  1  0
 27 49  1  0
 27 50  1  0
M  END
> <ID>
HT1237

> <Class>
1.0

> <Clusters>
26

> <Fold>
4

$$$$