
     RDKit          3D

 26 26  0  0  0  0  0  0  0  0999 V2000
    2.6996   -1.0425   -1.3606 C   0  0  0  0  0  0  0  0  0  0  0  0
    1.1937   -0.8224   -1.2152 C   0  0  0  0  0  0  0  0  0  0  0  0
    0.8352   -0.0846    0.0900 C   0  0  2  0  0  0  0  0  0  0  0  0
   -0.6176   -0.1079    0.3165 N   0  0  0  0  0  0  0  0  0  0  0  0
   -1.6301    0.3869   -0.6065 C   0  0  0  0  0  0  0  0  0  0  0  0
   -2.9930    0.1279    0.0659 C   0  0  0  0  0  0  0  0  0  0  0  0
   -2.7187   -0.5004    1.4398 C   0  0  0  0  0  0  0  0  0  0  0  0
   -1.2481   -0.6046    1.4830 C   0  0  0  0  0  0  0  0  0  0  0  0
   -0.6140   -1.0819    2.4616 O   0  0  0  0  0  0  0  0  0  0  0  0
    1.3374    1.3386    0.0902 C   0  0  0  0  0  0  0  0  0  0  0  0
    1.0261    2.1210   -0.8477 O   0  0  0  0  0  0  0  0  0  0  0  0
    2.1696    1.8116    1.1499 N   0  0  0  0  0  0  0  0  0  0  0  0
    3.2329   -0.0700   -1.4131 H   0  0  0  0  0  0  0  0  0  0  0  0
    2.9031   -1.6059   -2.2956 H   0  0  0  0  0  0  0  0  0  0  0  0
    3.0896   -1.6294   -0.5020 H   0  0  0  0  0  0  0  0  0  0  0  0
    0.6945   -1.8160   -1.2173 H   0  0  0  0  0  0  0  0  0  0  0  0
    0.8242   -0.2549   -2.0969 H   0  0  0  0  0  0  0  0  0  0  0  0
    1.3322   -0.6285    0.9233 H   0  0  0  0  0  0  0  0  0  0  0  0
   -1.4916    1.4747   -0.7804 H   0  0  0  0  0  0  0  0  0  0  0  0
   -1.5688   -0.1582   -1.5725 H   0  0  0  0  0  0  0  0  0  0  0  0
   -3.6008   -0.5653   -0.5561 H   0  0  0  0  0  0  0  0  0  0  0  0
   -3.5528    1.0815    0.1836 H   0  0  0  0  0  0  0  0  0  0  0  0
   -3.1784   -1.5090    1.5186 H   0  0  0  0  0  0  0  0  0  0  0  0
   -3.0803    0.1563    2.2600 H   0  0  0  0  0  0  0  0  0  0  0  0
    2.4378    1.1873    1.9425 H   0  0  0  0  0  0  0  0  0  0  0  0
    2.5183    2.7957    1.1446 H   0  0  0  0  0  0  0  0  0  0  0  0
  1  2  1  0
  3  2  1  0
  3  4  1  0
  4  5  1  0
  5  6  1  0
  6  7  1  0
  7  8  1  0
  8  4  1  0
  8  9  2  0
  3 10  1  0
 10 11  2  0
 10 12  1  0
  1 13  1  0
  1 14  1  0
  1 15  1  0
  2 16  1  0
  2 17  1  0
  3 18  1  1
  5 19  1  0
  5 20  1  0
  6 21  1  0
  6 22  1  0
  7 23  1  0
  7 24  1  0
 12 25  1  0
 12 26  1  0
M  END
> <ID>
HT1192

> <Class>
1.0

> <Clusters>
256

> <Fold>
4

$$$$