
     RDKit          3D

 67 70  0  0  0  0  0  0  0  0999 V2000
   -5.3348   -0.3275    0.0670 C   0  0  0  0  0  0  0  0  0  0  0  0
   -4.5767   -1.0001   -0.9892 N   0  0  0  0  0  0  0  0  0  0  0  0
   -4.9958   -2.3315   -1.4252 C   0  0  0  0  0  0  0  0  0  0  0  0
   -3.4808   -0.3617   -1.6751 C   0  0  0  0  0  0  0  0  0  0  0  0
   -3.4898   -0.3569   -2.9382 O   0  0  0  0  0  0  0  0  0  0  0  0
   -2.3029    0.2804   -0.9189 C   0  0  0  0  0  0  0  0  0  0  0  0
   -1.0611    0.3235   -1.8920 C   0  0  0  0  0  0  0  0  0  0  0  0
    0.2955    0.7849   -1.3106 C   0  0  0  0  0  0  0  0  0  0  0  0
    0.8574   -0.2095   -0.3712 N   0  0  0  0  0  0  0  0  0  0  0  0
    1.6168    0.4476    0.7194 C   0  0  0  0  0  0  0  0  0  0  0  0
    2.5177   -0.5563    1.4503 C   0  0  0  0  0  0  0  0  0  0  0  0
    3.6214   -1.1414    0.5138 C   0  0  0  0  0  0  0  0  0  0  0  0
    3.8147   -2.4742    0.9458 O   0  0  0  0  0  0  0  0  0  0  0  0
    3.1331   -1.0992   -0.9714 C   0  0  0  0  0  0  0  0  0  0  0  0
    1.6129   -1.2866   -1.0700 C   0  0  0  0  0  0  0  0  0  0  0  0
    4.9650   -0.3935    0.5991 C   0  0  0  0  0  0  0  0  0  0  0  0
    6.1206   -0.9879    0.0449 C   0  0  0  0  0  0  0  0  0  0  0  0
    7.3545   -0.3333    0.0780 C   0  0  0  0  0  0  0  0  0  0  0  0
    7.4603    0.9357    0.6468 C   0  0  0  0  0  0  0  0  0  0  0  0
    9.0098    1.7568    0.6832 Cl  0  0  0  0  0  0  0  0  0  0  0  0
    6.3271    1.5568    1.1720 C   0  0  0  0  0  0  0  0  0  0  0  0
    5.0892    0.9079    1.1421 C   0  0  0  0  0  0  0  0  0  0  0  0
   -2.0340   -0.6458    0.2957 C   0  0  0  0  0  0  0  0  0  0  0  0
   -1.4982   -1.9387    0.0836 C   0  0  0  0  0  0  0  0  0  0  0  0
   -1.2774   -2.8152    1.1486 C   0  0  0  0  0  0  0  0  0  0  0  0
   -1.6386   -2.4485    2.4427 C   0  0  0  0  0  0  0  0  0  0  0  0
   -2.2529   -1.2186    2.6680 C   0  0  0  0  0  0  0  0  0  0  0  0
   -2.4744   -0.3374    1.6062 C   0  0  0  0  0  0  0  0  0  0  0  0
   -2.6374    1.7518   -0.5515 C   0  0  0  0  0  0  0  0  0  0  0  0
   -1.9328    2.4348    0.4682 C   0  0  0  0  0  0  0  0  0  0  0  0
   -2.1910    3.7775    0.7544 C   0  0  0  0  0  0  0  0  0  0  0  0
   -3.1345    4.4831    0.0109 C   0  0  0  0  0  0  0  0  0  0  0  0
   -3.8099    3.8510   -1.0309 C   0  0  0  0  0  0  0  0  0  0  0  0
   -3.5553    2.5081   -1.3229 C   0  0  0  0  0  0  0  0  0  0  0  0
   -4.9616    0.6970    0.2532 H   0  0  0  0  0  0  0  0  0  0  0  0
   -5.2646   -0.9122    1.0082 H   0  0  0  0  0  0  0  0  0  0  0  0
   -6.4015   -0.2515   -0.2318 H   0  0  0  0  0  0  0  0  0  0  0  0
   -5.8401   -2.7066   -0.8077 H   0  0  0  0  0  0  0  0  0  0  0  0
   -5.3232   -2.2976   -2.4856 H   0  0  0  0  0  0  0  0  0  0  0  0
   -4.1470   -3.0404   -1.3254 H   0  0  0  0  0  0  0  0  0  0  0  0
   -0.9171   -0.6586   -2.3879 H   0  0  0  0  0  0  0  0  0  0  0  0
   -1.2988    1.0243   -2.7238 H   0  0  0  0  0  0  0  0  0  0  0  0
    0.1776    1.7796   -0.8386 H   0  0  0  0  0  0  0  0  0  0  0  0
    1.0045    0.9599   -2.1514 H   0  0  0  0  0  0  0  0  0  0  0  0
    2.2366    1.2828    0.3236 H   0  0  0  0  0  0  0  0  0  0  0  0
    0.9007    0.8717    1.4537 H   0  0  0  0  0  0  0  0  0  0  0  0
    2.9402   -0.1186    2.3785 H   0  0  0  0  0  0  0  0  0  0  0  0
    1.8561   -1.3800    1.8028 H   0  0  0  0  0  0  0  0  0  0  0  0
    4.2030   -3.0167    0.2128 H   0  0  0  0  0  0  0  0  0  0  0  0
    3.6423   -1.8704   -1.5889 H   0  0  0  0  0  0  0  0  0  0  0  0
    3.3833   -0.1165   -1.4308 H   0  0  0  0  0  0  0  0  0  0  0  0
    1.3472   -2.2620   -0.6091 H   0  0  0  0  0  0  0  0  0  0  0  0
    1.3277   -1.3668   -2.1424 H   0  0  0  0  0  0  0  0  0  0  0  0
    6.0750   -1.9598   -0.4270 H   0  0  0  0  0  0  0  0  0  0  0  0
    8.2274   -0.8128   -0.3467 H   0  0  0  0  0  0  0  0  0  0  0  0
    6.4015    2.5498    1.5969 H   0  0  0  0  0  0  0  0  0  0  0  0
    4.2415    1.4495    1.5317 H   0  0  0  0  0  0  0  0  0  0  0  0
   -1.2491   -2.2816   -0.9099 H   0  0  0  0  0  0  0  0  0  0  0  0
   -0.8374   -3.7871    0.9660 H   0  0  0  0  0  0  0  0  0  0  0  0
   -1.4719   -3.1307    3.2662 H   0  0  0  0  0  0  0  0  0  0  0  0
   -2.5788   -0.9541    3.6658 H   0  0  0  0  0  0  0  0  0  0  0  0
   -3.0229    0.5665    1.8225 H   0  0  0  0  0  0  0  0  0  0  0  0
   -1.1769    1.9308    1.0518 H   0  0  0  0  0  0  0  0  0  0  0  0
   -1.6501    4.2737    1.5499 H   0  0  0  0  0  0  0  0  0  0  0  0
   -3.3311    5.5242    0.2321 H   0  0  0  0  0  0  0  0  0  0  0  0
   -4.5270    4.4053   -1.6229 H   0  0  0  0  0  0  0  0  0  0  0  0
   -4.0831    2.0727   -2.1591 H   0  0  0  0  0  0  0  0  0  0  0  0
  1  2  1  0
  2  3  1  0
  2  4  1  0
  4  5  2  0
  4  6  1  0
  6  7  1  0
  7  8  1  0
  8  9  1  0
  9 10  1  0
 10 11  1  0
 11 12  1  0
 12 13  1  0
 12 14  1  0
 14 15  1  0
 15  9  1  0
 12 16  1  0
 16 17  2  0
 17 18  1  0
 18 19  2  0
 19 20  1  0
 19 21  1  0
 21 22  2  0
 22 16  1  0
  6 23  1  0
 23 24  2  0
 24 25  1  0
 25 26  2  0
 26 27  1  0
 27 28  2  0
 28 23  1  0
  6 29  1  0
 29 30  2  0
 30 31  1  0
 31 32  2  0
 32 33  1  0
 33 34  2  0
 34 29  1  0
  1 35  1  0
  1 36  1  0
  1 37  1  0
  3 38  1  0
  3 39  1  0
  3 40  1  0
  7 41  1  0
  7 42  1  0
  8 43  1  0
  8 44  1  0
 10 45  1  0
 10 46  1  0
 11 47  1  0
 11 48  1  0
 13 49  1  0
 14 50  1  0
 14 51  1  0
 15 52  1  0
 15 53  1  0
 17 54  1  0
 18 55  1  0
 21 56  1  0
 22 57  1  0
 24 58  1  0
 25 59  1  0
 26 60  1  0
 27 61  1  0
 28 62  1  0
 30 63  1  0
 31 64  1  0
 32 65  1  0
 33 66  1  0
 34 67  1  0
M  END
> <ID>
HT1233

> <Class>
1.0

> <Clusters>
124

> <Fold>
4

$$$$