
     RDKit          3D

 44 46  0  0  0  0  0  0  0  0999 V2000
   -6.9227   -2.0411   -0.7301 C   0  0  0  0  0  0  0  0  0  0  0  0
   -6.2276   -0.8500   -1.3045 C   0  0  0  0  0  0  0  0  0  0  0  0
   -6.4338   -0.5250   -2.5052 O   0  0  0  0  0  0  0  0  0  0  0  0
   -5.3316   -0.0843   -0.4903 N   0  0  0  0  0  0  0  0  0  0  0  0
   -4.6292    1.0852   -1.0196 C   0  0  0  0  0  0  0  0  0  0  0  0
   -3.7150    1.7140    0.0406 C   0  0  1  0  0  0  0  0  0  0  0  0
   -2.5225    0.7913    0.4292 C   0  0  0  0  0  0  0  0  0  0  0  0
   -1.3212    1.5300    0.0513 N   0  0  0  0  0  0  0  0  0  0  0  0
   -1.7502    2.7775   -0.4629 C   0  0  0  0  0  0  0  0  0  0  0  0
   -0.9740    3.7066   -0.8083 O   0  0  0  0  0  0  0  0  0  0  0  0
   -3.1195    2.8971   -0.4813 O   0  0  0  0  0  0  0  0  0  0  0  0
    0.0291    1.0316    0.1335 C   0  0  0  0  0  0  0  0  0  0  0  0
    1.0043    1.4314   -0.7963 C   0  0  0  0  0  0  0  0  0  0  0  0
    2.3075    0.9344   -0.7155 C   0  0  0  0  0  0  0  0  0  0  0  0
    2.6617    0.0224    0.2889 C   0  0  0  0  0  0  0  0  0  0  0  0
    4.0071   -0.4857    0.3498 N   0  0  0  0  0  0  0  0  0  0  0  0
    5.1338    0.4338    0.5290 C   0  0  0  0  0  0  0  0  0  0  0  0
    6.3636   -0.1169   -0.1994 C   0  0  0  0  0  0  0  0  0  0  0  0
    6.6236   -1.4530    0.1907 O   0  0  0  0  0  0  0  0  0  0  0  0
    5.5581   -2.2899   -0.2203 C   0  0  0  0  0  0  0  0  0  0  0  0
    4.2630   -1.9194    0.5089 C   0  0  0  0  0  0  0  0  0  0  0  0
    1.6864   -0.3907    1.2137 C   0  0  0  0  0  0  0  0  0  0  0  0
    2.0001   -1.2520    2.2137 F   0  0  0  0  0  0  0  0  0  0  0  0
    0.3824    0.1076    1.1314 C   0  0  0  0  0  0  0  0  0  0  0  0
   -7.5449   -1.7269    0.1337 H   0  0  0  0  0  0  0  0  0  0  0  0
   -6.1694   -2.7810   -0.3881 H   0  0  0  0  0  0  0  0  0  0  0  0
   -7.5767   -2.5179   -1.4909 H   0  0  0  0  0  0  0  0  0  0  0  0
   -5.1861   -0.3781    0.5028 H   0  0  0  0  0  0  0  0  0  0  0  0
   -5.3774    1.8408   -1.3431 H   0  0  0  0  0  0  0  0  0  0  0  0
   -4.0258    0.7891   -1.9057 H   0  0  0  0  0  0  0  0  0  0  0  0
   -4.3101    1.9775    0.9426 H   0  0  0  0  0  0  0  0  0  0  0  0
   -2.5487   -0.1814   -0.1090 H   0  0  0  0  0  0  0  0  0  0  0  0
   -2.5283    0.6086    1.5250 H   0  0  0  0  0  0  0  0  0  0  0  0
    0.7568    2.1036   -1.6058 H   0  0  0  0  0  0  0  0  0  0  0  0
    3.0385    1.2438   -1.4520 H   0  0  0  0  0  0  0  0  0  0  0  0
    5.3563    0.5286    1.6137 H   0  0  0  0  0  0  0  0  0  0  0  0
    4.8957    1.4438    0.1319 H   0  0  0  0  0  0  0  0  0  0  0  0
    7.2434    0.5064    0.0658 H   0  0  0  0  0  0  0  0  0  0  0  0
    6.2286   -0.0398   -1.3026 H   0  0  0  0  0  0  0  0  0  0  0  0
    5.4110   -2.2402   -1.3235 H   0  0  0  0  0  0  0  0  0  0  0  0
    5.8181   -3.3407    0.0269 H   0  0  0  0  0  0  0  0  0  0  0  0
    4.3684   -2.1583    1.5892 H   0  0  0  0  0  0  0  0  0  0  0  0
    3.4238   -2.5145    0.0867 H   0  0  0  0  0  0  0  0  0  0  0  0
   -0.3465   -0.2183    1.8611 H   0  0  0  0  0  0  0  0  0  0  0  0
  1  2  1  0
  2  3  2  0
  2  4  1  0
  4  5  1  0
  6  5  1  0
  6  7  1  0
  7  8  1  0
  8  9  1  0
  9 10  2  0
  9 11  1  0
 11  6  1  0
  8 12  1  0
 12 13  2  0
 13 14  1  0
 14 15  2  0
 15 16  1  0
 16 17  1  0
 17 18  1  0
 18 19  1  0
 19 20  1  0
 20 21  1  0
 21 16  1  0
 15 22  1  0
 22 23  1  0
 22 24  2  0
 24 12  1  0
  1 25  1  0
  1 26  1  0
  1 27  1  0
  4 28  1  0
  5 29  1  0
  5 30  1  0
  6 31  1  1
  7 32  1  0
  7 33  1  0
 13 34  1  0
 14 35  1  0
 17 36  1  0
 17 37  1  0
 18 38  1  0
 18 39  1  0
 20 40  1  0
 20 41  1  0
 21 42  1  0
 21 43  1  0
 24 44  1  0
M  END
> <ID>
HT1214

> <Class>
1.0

> <Clusters>
184

> <Fold>
4

$$$$