
     RDKit          3D

 35 36  0  0  0  0  0  0  0  0999 V2000
    7.9038    0.3694    0.7049 Cl  0  0  0  0  0  0  0  0  0  0  0  0
    6.2231    0.4156    0.2049 C   0  0  0  0  0  0  0  0  0  0  0  0
    5.8389    1.1986   -0.8869 C   0  0  0  0  0  0  0  0  0  0  0  0
    4.5000    1.2352   -1.2879 C   0  0  0  0  0  0  0  0  0  0  0  0
    3.5258    0.4932   -0.5942 C   0  0  0  0  0  0  0  0  0  0  0  0
    3.9264   -0.3016    0.4967 C   0  0  0  0  0  0  0  0  0  0  0  0
    5.2669   -0.3359    0.8935 C   0  0  0  0  0  0  0  0  0  0  0  0
    2.1100    0.5366   -1.0334 C   0  0  0  0  0  0  0  0  0  0  0  0
    1.8428    0.8438   -2.2278 O   0  0  0  0  0  0  0  0  0  0  0  0
    1.0384    0.2530   -0.1200 N   0  0  0  0  0  0  0  0  0  0  0  0
   -0.3443    0.1402   -0.5856 C   0  0  0  0  0  0  0  0  0  0  0  0
   -1.2896   -0.1870    0.5766 C   0  0  0  0  0  0  0  0  0  0  0  0
   -2.6633   -0.4189    0.0809 N   0  0  0  0  0  0  0  0  0  0  0  0
   -3.4027   -1.3108    0.9983 C   0  0  0  0  0  0  0  0  0  0  0  0
   -4.9034   -1.3518    0.6464 C   0  0  0  0  0  0  0  0  0  0  0  0
   -5.1346   -0.8105   -0.6382 O   0  0  0  0  0  0  0  0  0  0  0  0
   -4.8148    0.5700   -0.6404 C   0  0  0  0  0  0  0  0  0  0  0  0
   -3.4022    0.8483   -0.0825 C   0  0  0  0  0  0  0  0  0  0  0  0
    6.5763    1.7797   -1.4260 H   0  0  0  0  0  0  0  0  0  0  0  0
    4.2245    1.8526   -2.1340 H   0  0  0  0  0  0  0  0  0  0  0  0
    3.2153   -0.9174    1.0306 H   0  0  0  0  0  0  0  0  0  0  0  0
    5.5620   -0.9528    1.7328 H   0  0  0  0  0  0  0  0  0  0  0  0
    1.2423    0.1741    0.9017 H   0  0  0  0  0  0  0  0  0  0  0  0
   -0.6420    1.0976   -1.0616 H   0  0  0  0  0  0  0  0  0  0  0  0
   -0.4083   -0.6698   -1.3444 H   0  0  0  0  0  0  0  0  0  0  0  0
   -0.8966   -1.1062    1.0691 H   0  0  0  0  0  0  0  0  0  0  0  0
   -1.2635    0.6308    1.3325 H   0  0  0  0  0  0  0  0  0  0  0  0
   -2.9863   -2.3387    0.9128 H   0  0  0  0  0  0  0  0  0  0  0  0
   -3.2861   -0.9782    2.0555 H   0  0  0  0  0  0  0  0  0  0  0  0
   -5.4994   -0.8075    1.4151 H   0  0  0  0  0  0  0  0  0  0  0  0
   -5.2557   -2.4051    0.6560 H   0  0  0  0  0  0  0  0  0  0  0  0
   -5.5783    1.1420   -0.0670 H   0  0  0  0  0  0  0  0  0  0  0  0
   -4.8654    0.9294   -1.6903 H   0  0  0  0  0  0  0  0  0  0  0  0
   -3.4917    1.3744    0.8958 H   0  0  0  0  0  0  0  0  0  0  0  0
   -2.8685    1.5238   -0.7840 H   0  0  0  0  0  0  0  0  0  0  0  0
  1  2  1  0
  2  3  2  0
  3  4  1  0
  4  5  2  0
  5  6  1  0
  6  7  2  0
  7  2  1  0
  5  8  1  0
  8  9  2  0
  8 10  1  0
 10 11  1  0
 11 12  1  0
 12 13  1  0
 13 14  1  0
 14 15  1  0
 15 16  1  0
 16 17  1  0
 17 18  1  0
 18 13  1  0
  3 19  1  0
  4 20  1  0
  6 21  1  0
  7 22  1  0
 10 23  1  0
 11 24  1  0
 11 25  1  0
 12 26  1  0
 12 27  1  0
 14 28  1  0
 14 29  1  0
 15 30  1  0
 15 31  1  0
 17 32  1  0
 17 33  1  0
 18 34  1  0
 18 35  1  0
M  END
> <ID>
HT1421

> <Class>
1.0

> <Clusters>
124

> <Fold>
4

$$$$