
     RDKit          3D

 39 42  0  0  0  0  0  0  0  0999 V2000
   -4.1851    1.3484   -0.4428 C   0  0  0  0  0  0  0  0  0  0  0  0
   -2.9286    0.5875   -0.3785 N   0  0  0  0  0  0  0  0  0  0  0  0
   -3.0099   -0.4784    0.6515 C   0  0  0  0  0  0  0  0  0  0  0  0
   -1.6372   -0.8391    1.2578 C   0  0  0  0  0  0  0  0  0  0  0  0
   -0.5613   -0.6415    0.2667 N   0  0  0  0  0  0  0  0  0  0  0  0
   -0.4861    0.6841   -0.3805 C   0  0  0  0  0  0  0  0  0  0  0  0
   -1.7872    1.4859   -0.1376 C   0  0  0  0  0  0  0  0  0  0  0  0
    0.8030    1.3855    0.0300 C   0  0  0  0  0  0  0  0  0  0  0  0
    0.8342    2.5031    0.8958 C   0  0  0  0  0  0  0  0  0  0  0  0
    2.0503    3.0568    1.3014 C   0  0  0  0  0  0  0  0  0  0  0  0
    3.2522    2.5092    0.8606 C   0  0  0  0  0  0  0  0  0  0  0  0
    3.2439    1.4132    0.0000 C   0  0  0  0  0  0  0  0  0  0  0  0
    2.0281    0.8518   -0.4283 C   0  0  0  0  0  0  0  0  0  0  0  0
    2.0441   -0.2977   -1.4008 C   0  0  0  0  0  0  0  0  0  0  0  0
    1.5674   -1.5904   -0.7758 C   0  0  0  0  0  0  0  0  0  0  0  0
    2.3721   -2.7296   -0.9724 C   0  0  0  0  0  0  0  0  0  0  0  0
    1.9812   -3.9742   -0.4918 C   0  0  0  0  0  0  0  0  0  0  0  0
    0.7775   -4.0892    0.1868 C   0  0  0  0  0  0  0  0  0  0  0  0
    0.0059   -2.9926    0.3845 N   0  0  0  0  0  0  0  0  0  0  0  0
    0.3380   -1.7438   -0.0578 C   0  0  0  0  0  0  0  0  0  0  0  0
   -4.1578    2.0556   -1.2993 H   0  0  0  0  0  0  0  0  0  0  0  0
   -4.3566    1.9213    0.4958 H   0  0  0  0  0  0  0  0  0  0  0  0
   -5.0408    0.6589   -0.6096 H   0  0  0  0  0  0  0  0  0  0  0  0
   -3.6887   -0.1914    1.4873 H   0  0  0  0  0  0  0  0  0  0  0  0
   -3.4347   -1.3876    0.1743 H   0  0  0  0  0  0  0  0  0  0  0  0
   -1.6782   -1.8715    1.6607 H   0  0  0  0  0  0  0  0  0  0  0  0
   -1.4383   -0.1768    2.1287 H   0  0  0  0  0  0  0  0  0  0  0  0
   -0.4837    0.5324   -1.4795 H   0  0  0  0  0  0  0  0  0  0  0  0
   -1.8103    2.3497   -0.8399 H   0  0  0  0  0  0  0  0  0  0  0  0
   -1.8548    1.8763    0.9004 H   0  0  0  0  0  0  0  0  0  0  0  0
   -0.0626    2.9644    1.2749 H   0  0  0  0  0  0  0  0  0  0  0  0
    2.0599    3.9110    1.9663 H   0  0  0  0  0  0  0  0  0  0  0  0
    4.1925    2.9385    1.1819 H   0  0  0  0  0  0  0  0  0  0  0  0
    4.1890    1.0073   -0.3391 H   0  0  0  0  0  0  0  0  0  0  0  0
    3.0701   -0.4173   -1.8142 H   0  0  0  0  0  0  0  0  0  0  0  0
    1.4257   -0.0636   -2.2905 H   0  0  0  0  0  0  0  0  0  0  0  0
    3.3074   -2.6612   -1.5146 H   0  0  0  0  0  0  0  0  0  0  0  0
    2.6046   -4.8445   -0.6520 H   0  0  0  0  0  0  0  0  0  0  0  0
    0.4548   -5.0503    0.5640 H   0  0  0  0  0  0  0  0  0  0  0  0
  1  2  1  0
  2  3  1  0
  3  4  1  0
  4  5  1  0
  5  6  1  0
  6  7  1  0
  7  2  1  0
  6  8  1  0
  8  9  2  0
  9 10  1  0
 10 11  2  0
 11 12  1  0
 12 13  2  0
 13  8  1  0
 13 14  1  0
 14 15  1  0
 15 16  2  0
 16 17  1  0
 17 18  2  0
 18 19  1  0
 19 20  2  0
 20  5  1  0
 20 15  1  0
  1 21  1  0
  1 22  1  0
  1 23  1  0
  3 24  1  0
  3 25  1  0
  4 26  1  0
  4 27  1  0
  6 28  1  0
  7 29  1  0
  7 30  1  0
  9 31  1  0
 10 32  1  0
 11 33  1  0
 12 34  1  0
 14 35  1  0
 14 36  1  0
 16 37  1  0
 17 38  1  0
 18 39  1  0
M  END
> <ID>
HT1411

> <Class>
1.0

> <Clusters>
26

> <Fold>
4

$$$$