
     RDKit          3D

 18 18  0  0  0  0  0  0  0  0999 V2000
    2.8524   -1.0214   -0.5329 N   0  0  0  0  0  0  0  0  0  0  0  0
    1.6388   -0.2926   -0.3288 C   0  0  0  0  0  0  0  0  0  0  0  0
    1.6532    1.1059   -0.3117 C   0  0  0  0  0  0  0  0  0  0  0  0
    0.4682    1.8174   -0.1208 C   0  0  0  0  0  0  0  0  0  0  0  0
   -0.7476    1.1464    0.0541 C   0  0  0  0  0  0  0  0  0  0  0  0
   -1.9069    1.9177    0.1602 O   0  0  0  0  0  0  0  0  0  0  0  0
   -0.7689   -0.2704    0.0809 C   0  0  0  0  0  0  0  0  0  0  0  0
    0.4307   -0.9747   -0.1333 C   0  0  0  0  0  0  0  0  0  0  0  0
   -2.0009   -1.0386    0.3641 C   0  0  0  0  0  0  0  0  0  0  0  0
   -2.1825   -2.1615   -0.1797 O   0  0  0  0  0  0  0  0  0  0  0  0
   -2.9393   -0.5624    1.2752 O   0  0  0  0  0  0  0  0  0  0  0  0
    2.8539   -2.0658   -0.5441 H   0  0  0  0  0  0  0  0  0  0  0  0
    3.7586   -0.5220   -0.6753 H   0  0  0  0  0  0  0  0  0  0  0  0
    2.5812    1.6449   -0.4559 H   0  0  0  0  0  0  0  0  0  0  0  0
    0.4901    2.8999   -0.1319 H   0  0  0  0  0  0  0  0  0  0  0  0
   -2.8390    1.5298    0.1148 H   0  0  0  0  0  0  0  0  0  0  0  0
    0.4332   -2.0584   -0.1218 H   0  0  0  0  0  0  0  0  0  0  0  0
   -3.7752   -1.0940    1.4870 H   0  0  0  0  0  0  0  0  0  0  0  0
  1  2  1  0
  2  3  2  0
  3  4  1  0
  4  5  2  0
  5  6  1  0
  5  7  1  0
  7  8  2  0
  8  2  1  0
  7  9  1  0
  9 10  2  0
  9 11  1  0
  1 12  1  0
  1 13  1  0
  3 14  1  0
  4 15  1  0
  6 16  1  0
  8 17  1  0
 11 18  1  0
M  END
> <ID>
HT1317

> <Class>
1.0

> <Clusters>
159

> <Fold>
4

$$$$