
     RDKit          3D

 60 63  0  0  0  0  0  0  0  0999 V2000
    2.4551    2.8798   -1.9330 O   0  0  0  0  0  0  0  0  0  0  0  0
    2.3056    1.7962   -1.3019 C   0  0  0  0  0  0  0  0  0  0  0  0
    0.9809    1.0651   -1.4312 C   0  0  0  0  0  0  0  0  0  0  0  0
    3.3916    1.2802   -0.4168 C   0  0  0  0  0  0  0  0  0  0  0  0
    4.7488    1.6788   -0.5562 C   0  0  0  0  0  0  0  0  0  0  0  0
    3.0441    0.3714    0.6130 C   0  0  0  0  0  0  0  0  0  0  0  0
    5.6945    1.2631    0.3823 C   0  0  0  0  0  0  0  0  0  0  0  0
    5.2100    2.4507   -1.6226 O   0  0  0  0  0  0  0  0  0  0  0  0
    1.6063   -0.0733    0.7528 C   0  0  0  0  0  0  0  0  0  0  0  0
    4.0212   -0.0481    1.5382 C   0  0  0  0  0  0  0  0  0  0  0  0
    5.3344    0.4160    1.4208 C   0  0  0  0  0  0  0  0  0  0  0  0
    0.9587   -0.2625   -0.6314 C   0  0  1  0  0  0  0  0  0  0  0  0
    3.6864   -0.9423    2.6097 N   0  0  0  0  0  0  0  0  0  0  0  0
   -0.4610   -0.8853   -0.4875 C   0  0  0  0  0  0  0  0  0  0  0  0
    3.7571   -2.3807    2.3598 C   0  0  0  0  0  0  0  0  0  0  0  0
    3.7644   -0.4573    3.9853 C   0  0  0  0  0  0  0  0  0  0  0  0
   -1.5465   -0.2014   -1.3574 C   0  0  2  0  0  0  0  0  0  0  0  0
   -1.6135    1.3281   -1.0491 C   0  0  1  0  0  0  0  0  0  0  0  0
   -2.9295   -0.9427   -1.2160 C   0  0  2  0  0  0  0  0  0  0  0  0
   -2.3175    1.5281    0.2890 C   0  0  0  0  0  0  0  0  0  0  0  0
   -0.2090    1.9262   -1.0483 C   0  0  0  0  0  0  0  0  0  0  0  0
   -2.3617    1.9513   -2.0660 O   0  0  0  0  0  0  0  0  0  0  0  0
   -3.3230   -1.5653   -2.5127 N   0  0  0  0  0  0  0  0  0  0  0  0
   -4.0146   -0.0839   -0.5656 C   0  0  0  0  0  0  0  0  0  0  0  0
   -1.8178    2.2271    1.1615 O   0  0  0  0  0  0  0  0  0  0  0  0
   -3.6644    0.8880    0.5348 C   0  0  0  0  0  0  0  0  0  0  0  0
   -0.0601    3.1124   -0.7944 O   0  0  0  0  0  0  0  0  0  0  0  0
   -4.2674   -2.6866   -2.3700 C   0  0  0  0  0  0  0  0  0  0  0  0
   -3.7783   -0.6186   -3.5472 C   0  0  0  0  0  0  0  0  0  0  0  0
   -5.1897   -0.2397   -0.8515 O   0  0  0  0  0  0  0  0  0  0  0  0
   -3.6939    0.1783    1.8649 C   0  0  0  0  0  0  0  0  0  0  0  0
   -2.8029   -0.6656    2.1434 O   0  0  0  0  0  0  0  0  0  0  0  0
   -4.7013    0.4858    2.8292 N   0  0  0  0  0  0  0  0  0  0  0  0
    0.8676    0.8127   -2.5076 H   0  0  0  0  0  0  0  0  0  0  0  0
    6.7263    1.5795    0.2879 H   0  0  0  0  0  0  0  0  0  0  0  0
    4.6977    2.5819   -2.4862 H   0  0  0  0  0  0  0  0  0  0  0  0
    1.5388   -1.0361    1.3009 H   0  0  0  0  0  0  0  0  0  0  0  0
    1.0476    0.6900    1.3382 H   0  0  0  0  0  0  0  0  0  0  0  0
    6.0877    0.0933    2.1259 H   0  0  0  0  0  0  0  0  0  0  0  0
    1.5834   -0.9945   -1.1938 H   0  0  0  0  0  0  0  0  0  0  0  0
   -0.7888   -0.8537    0.5728 H   0  0  0  0  0  0  0  0  0  0  0  0
   -0.4037   -1.9628   -0.7624 H   0  0  0  0  0  0  0  0  0  0  0  0
    3.1007   -2.9233    3.0697 H   0  0  0  0  0  0  0  0  0  0  0  0
    4.8036   -2.7320    2.4861 H   0  0  0  0  0  0  0  0  0  0  0  0
    3.4184   -2.6107    1.3248 H   0  0  0  0  0  0  0  0  0  0  0  0
    3.4942    0.6212    4.0333 H   0  0  0  0  0  0  0  0  0  0  0  0
    3.0579   -1.0246    4.6295 H   0  0  0  0  0  0  0  0  0  0  0  0
    4.7979   -0.5887    4.3686 H   0  0  0  0  0  0  0  0  0  0  0  0
   -1.2001   -0.3179   -2.4082 H   0  0  0  0  0  0  0  0  0  0  0  0
   -2.7800   -1.7685   -0.4842 H   0  0  0  0  0  0  0  0  0  0  0  0
   -2.4723    2.9085   -1.8251 H   0  0  0  0  0  0  0  0  0  0  0  0
   -4.4188    1.7053    0.5329 H   0  0  0  0  0  0  0  0  0  0  0  0
   -5.2914   -2.3353   -2.1330 H   0  0  0  0  0  0  0  0  0  0  0  0
   -3.9244   -3.3921   -1.5823 H   0  0  0  0  0  0  0  0  0  0  0  0
   -4.3133   -3.2628   -3.3203 H   0  0  0  0  0  0  0  0  0  0  0  0
   -3.0088    0.1524   -3.7363 H   0  0  0  0  0  0  0  0  0  0  0  0
   -3.9234   -1.1454   -4.5119 H   0  0  0  0  0  0  0  0  0  0  0  0
   -4.7322   -0.1282   -3.2669 H   0  0  0  0  0  0  0  0  0  0  0  0
   -5.4495    1.1854    2.6281 H   0  0  0  0  0  0  0  0  0  0  0  0
   -4.7221   -0.0268    3.7393 H   0  0  0  0  0  0  0  0  0  0  0  0
  1  2  2  0
  2  3  1  0
  4  2  1  0
  5  4  2  0
  4  6  1  0
  7  5  1  0
  5  8  1  0
  9  6  1  0
  6 10  2  0
 11  7  2  0
 12  9  1  0
 10 11  1  0
 10 13  1  0
  3 12  1  0
 12 14  1  0
 13 15  1  0
 13 16  1  0
 17 14  1  0
 18 17  1  0
 19 17  1  0
 18 20  1  0
 21 18  1  0
 18 22  1  6
 19 23  1  0
 24 19  1  0
 25 20  2  0
 20 26  1  0
  3 21  1  0
 21 27  2  0
 28 23  1  0
 23 29  1  0
 26 24  1  0
 24 30  2  0
 26 31  1  0
 31 32  2  0
 31 33  1  0
  3 34  1  0
  7 35  1  0
  8 36  1  0
  9 37  1  0
  9 38  1  0
 11 39  1  0
 12 40  1  6
 14 41  1  0
 14 42  1  0
 15 43  1  0
 15 44  1  0
 15 45  1  0
 16 46  1  0
 16 47  1  0
 16 48  1  0
 17 49  1  6
 19 50  1  1
 22 51  1  0
 26 52  1  0
 28 53  1  0
 28 54  1  0
 28 55  1  0
 29 56  1  0
 29 57  1  0
 29 58  1  0
 33 59  1  0
 33 60  1  0
M  END
> <ID>
HT1407

> <Class>
1.0

> <Clusters>
225

> <Fold>
4

$$$$