
     RDKit          3D

 37 36  0  0  0  0  0  0  0  0999 V2000
   -6.2517   -0.4522   -0.0607 C   0  0  0  0  0  0  0  0  0  0  0  0
   -4.9521   -0.8953    0.6051 C   0  0  0  0  0  0  0  0  0  0  0  0
   -3.7310   -0.3521   -0.1463 C   0  0  0  0  0  0  0  0  0  0  0  0
   -2.4268   -0.7919    0.5353 C   0  0  0  0  0  0  0  0  0  0  0  0
   -1.1759   -0.3855   -0.2596 C   0  0  0  0  0  0  0  0  0  0  0  0
   -0.9277    1.1333   -0.2371 C   0  0  0  0  0  0  0  0  0  0  0  0
    0.4093    1.5086   -0.8987 C   0  0  0  0  0  0  0  0  0  0  0  0
    1.6210    1.1736   -0.0731 C   0  0  0  0  0  0  0  0  0  0  0  0
    1.5055    0.7447    1.1086 O   0  0  0  0  0  0  0  0  0  0  0  0
    2.8874    1.3678   -0.6352 O   0  0  0  0  0  0  0  0  0  0  0  0
    4.1028    1.0193    0.0262 C   0  0  0  0  0  0  0  0  0  0  0  0
    4.3154   -0.5033    0.0155 C   0  0  0  0  0  0  0  0  0  0  0  0
    4.3771   -0.9658   -1.3092 O   0  0  0  0  0  0  0  0  0  0  0  0
    5.6177   -0.8666    0.7393 C   0  0  0  0  0  0  0  0  0  0  0  0
    5.7635   -2.2594    0.8142 O   0  0  0  0  0  0  0  0  0  0  0  0
   -6.3238    0.6563   -0.0671 H   0  0  0  0  0  0  0  0  0  0  0  0
   -7.1164   -0.8609    0.5033 H   0  0  0  0  0  0  0  0  0  0  0  0
   -6.2984   -0.8292   -1.1047 H   0  0  0  0  0  0  0  0  0  0  0  0
   -4.9187   -2.0065    0.6225 H   0  0  0  0  0  0  0  0  0  0  0  0
   -4.9413   -0.5262    1.6539 H   0  0  0  0  0  0  0  0  0  0  0  0
   -3.7869    0.7572   -0.1660 H   0  0  0  0  0  0  0  0  0  0  0  0
   -3.7474   -0.7284   -1.1929 H   0  0  0  0  0  0  0  0  0  0  0  0
   -2.4270   -1.9002    0.6291 H   0  0  0  0  0  0  0  0  0  0  0  0
   -2.3741   -0.3677    1.5621 H   0  0  0  0  0  0  0  0  0  0  0  0
   -0.3048   -0.9092    0.1887 H   0  0  0  0  0  0  0  0  0  0  0  0
   -1.2683   -0.7363   -1.3108 H   0  0  0  0  0  0  0  0  0  0  0  0
   -1.7376    1.6393   -0.8041 H   0  0  0  0  0  0  0  0  0  0  0  0
   -0.9570    1.5191    0.8056 H   0  0  0  0  0  0  0  0  0  0  0  0
    0.4186    2.6033   -1.0878 H   0  0  0  0  0  0  0  0  0  0  0  0
    0.4913    0.9999   -1.8835 H   0  0  0  0  0  0  0  0  0  0  0  0
    4.9440    1.5109   -0.5079 H   0  0  0  0  0  0  0  0  0  0  0  0
    4.0890    1.4063    1.0690 H   0  0  0  0  0  0  0  0  0  0  0  0
    3.4749   -0.9974    0.5566 H   0  0  0  0  0  0  0  0  0  0  0  0
    3.4408   -1.0580   -1.6266 H   0  0  0  0  0  0  0  0  0  0  0  0
    6.4929   -0.4094    0.2217 H   0  0  0  0  0  0  0  0  0  0  0  0
    5.5896   -0.4653    1.7750 H   0  0  0  0  0  0  0  0  0  0  0  0
    6.1263   -2.5570   -0.0606 H   0  0  0  0  0  0  0  0  0  0  0  0
  1  2  1  0
  2  3  1  0
  3  4  1  0
  4  5  1  0
  5  6  1  0
  6  7  1  0
  7  8  1  0
  8  9  2  0
  8 10  1  0
 10 11  1  0
 11 12  1  0
 12 13  1  0
 12 14  1  0
 14 15  1  0
  1 16  1  0
  1 17  1  0
  1 18  1  0
  2 19  1  0
  2 20  1  0
  3 21  1  0
  3 22  1  0
  4 23  1  0
  4 24  1  0
  5 25  1  0
  5 26  1  0
  6 27  1  0
  6 28  1  0
  7 29  1  0
  7 30  1  0
 11 31  1  0
 11 32  1  0
 12 33  1  0
 13 34  1  0
 14 35  1  0
 14 36  1  0
 15 37  1  0
M  END
> <ID>
HT1431

> <Class>
1.0

> <Clusters>
270

> <Fold>
4

$$$$