
     RDKit          3D

 40 44  0  0  0  0  0  0  0  0999 V2000
    3.9462    0.6915    0.2535 C   0  0  0  0  0  0  0  0  0  0  0  0
    2.7049   -0.0700    0.4673 N   0  0  0  0  0  0  0  0  0  0  0  0
    1.9756    0.4072    1.6622 C   0  0  0  0  0  0  0  0  0  0  0  0
    0.7357   -0.4649    1.9488 C   0  0  0  0  0  0  0  0  0  0  0  0
   -0.1337   -0.6682    0.6848 C   0  0  2  0  0  0  0  0  0  0  0  0
   -1.4370   -1.5009    0.9864 C   0  0  1  0  0  0  0  0  0  0  0  0
   -2.5100   -0.5513    0.9144 O   0  0  0  0  0  0  0  0  0  0  0  0
   -2.0547    0.6600    0.4363 C   0  0  0  0  0  0  0  0  0  0  0  0
   -2.8243    1.7556    0.0371 C   0  0  0  0  0  0  0  0  0  0  0  0
   -4.1945    1.8096    0.2792 O   0  0  0  0  0  0  0  0  0  0  0  0
   -2.1805    2.7973   -0.6569 C   0  0  0  0  0  0  0  0  0  0  0  0
   -0.8177    2.6802   -1.0057 C   0  0  0  0  0  0  0  0  0  0  0  0
   -0.0772    1.5569   -0.5886 C   0  0  0  0  0  0  0  0  0  0  0  0
    1.2617    1.2153   -1.2056 C   0  0  0  0  0  0  0  0  0  0  0  0
    1.8516   -0.1690   -0.7467 C   0  0  2  0  0  0  0  0  0  0  0  0
    0.7492   -1.2229   -0.4548 C   0  0  2  0  0  0  0  0  0  0  0  0
   -0.1040   -1.5885   -1.6477 C   0  0  0  0  0  0  0  0  0  0  0  0
   -1.2524   -2.2522   -1.4431 C   0  0  0  0  0  0  0  0  0  0  0  0
   -1.6551   -2.6533   -0.0345 C   0  0  2  0  0  0  0  0  0  0  0  0
   -2.9773   -3.1282    0.0039 O   0  0  0  0  0  0  0  0  0  0  0  0
   -0.7075    0.6340    0.2445 C   0  0  0  0  0  0  0  0  0  0  0  0
    4.4165    0.4192   -0.7156 H   0  0  0  0  0  0  0  0  0  0  0  0
    4.6731    0.4404    1.0546 H   0  0  0  0  0  0  0  0  0  0  0  0
    3.7683    1.7875    0.2809 H   0  0  0  0  0  0  0  0  0  0  0  0
    1.6738    1.4710    1.5439 H   0  0  0  0  0  0  0  0  0  0  0  0
    2.6430    0.3539    2.5503 H   0  0  0  0  0  0  0  0  0  0  0  0
    0.1363    0.0092    2.7572 H   0  0  0  0  0  0  0  0  0  0  0  0
    1.0748   -1.4569    2.3203 H   0  0  0  0  0  0  0  0  0  0  0  0
   -1.4117   -1.9293    2.0126 H   0  0  0  0  0  0  0  0  0  0  0  0
   -4.6744    1.0628    0.7677 H   0  0  0  0  0  0  0  0  0  0  0  0
   -2.7485    3.6556   -0.9920 H   0  0  0  0  0  0  0  0  0  0  0  0
   -0.3620    3.4278   -1.6425 H   0  0  0  0  0  0  0  0  0  0  0  0
    1.9694    2.0473   -1.0246 H   0  0  0  0  0  0  0  0  0  0  0  0
    1.1134    1.1685   -2.3062 H   0  0  0  0  0  0  0  0  0  0  0  0
    2.4735   -0.5691   -1.5792 H   0  0  0  0  0  0  0  0  0  0  0  0
    1.2402   -2.1607   -0.1080 H   0  0  0  0  0  0  0  0  0  0  0  0
    0.1703   -1.2708   -2.6491 H   0  0  0  0  0  0  0  0  0  0  0  0
   -1.9020   -2.4752   -2.2842 H   0  0  0  0  0  0  0  0  0  0  0  0
   -0.9903   -3.4922    0.2657 H   0  0  0  0  0  0  0  0  0  0  0  0
   -3.5625   -2.4272   -0.3864 H   0  0  0  0  0  0  0  0  0  0  0  0
  1  2  1  0
  2  3  1  0
  3  4  1  0
  5  4  1  1
  5  6  1  0
  6  7  1  0
  7  8  1  0
  8  9  2  0
  9 10  1  0
  9 11  1  0
 11 12  2  0
 12 13  1  0
 13 14  1  0
 15 14  1  0
 15  2  1  0
 15 16  1  0
 16  5  1  0
 16 17  1  0
 17 18  2  0
 18 19  1  0
 19  6  1  0
 19 20  1  0
 13 21  2  0
 21  5  1  0
 21  8  1  0
  1 22  1  0
  1 23  1  0
  1 24  1  0
  3 25  1  0
  3 26  1  0
  4 27  1  0
  4 28  1  0
  6 29  1  1
 10 30  1  0
 11 31  1  0
 12 32  1  0
 14 33  1  0
 14 34  1  0
 15 35  1  6
 16 36  1  1
 17 37  1  0
 18 38  1  0
 19 39  1  1
 20 40  1  0
M  END
> <ID>
HT1436

> <Class>
1.0

> <Clusters>
63

> <Fold>
4

$$$$