
     RDKit          3D

 57 61  0  0  0  0  0  0  0  0999 V2000
    7.9177    1.6711   -0.2699 O   0  0  0  0  0  0  0  0  0  0  0  0
    6.7572    1.5933   -0.7546 C   0  0  0  0  0  0  0  0  0  0  0  0
    5.7674    0.9678   -0.0595 N   0  0  0  0  0  0  0  0  0  0  0  0
    6.4859    2.1537   -2.0028 C   0  0  0  0  0  0  0  0  0  0  0  0
    5.1901    2.0623   -2.5037 C   0  0  0  0  0  0  0  0  0  0  0  0
    4.2292    1.4305   -1.7832 N   0  0  0  0  0  0  0  0  0  0  0  0
    4.5039    0.8736   -0.5710 C   0  0  0  0  0  0  0  0  0  0  0  0
    3.4535    0.2160    0.1695 N   0  0  0  0  0  0  0  0  0  0  0  0
    3.7767   -0.9800    0.9580 C   0  0  0  0  0  0  0  0  0  0  0  0
    2.0882    0.7898    0.1254 C   0  0  0  0  0  0  0  0  0  0  0  0
    1.3733    0.8038    1.5021 C   0  0  0  0  0  0  0  0  0  0  0  0
    1.2355    0.1707   -1.0067 C   0  0  0  0  0  0  0  0  0  0  0  0
    0.6063   -0.4839    1.8287 C   0  0  0  0  0  0  0  0  0  0  0  0
    0.5184   -1.1178   -0.6006 C   0  0  0  0  0  0  0  0  0  0  0  0
   -0.1730   -0.9250    0.6724 N   0  0  0  0  0  0  0  0  0  0  0  0
   -1.4636   -1.5153    0.8703 C   0  0  0  0  0  0  0  0  0  0  0  0
   -1.6852   -2.8449    0.7035 N   0  0  0  0  0  0  0  0  0  0  0  0
   -2.5705   -0.8114    1.2296 N   0  0  0  0  0  0  0  0  0  0  0  0
   -2.9961   -2.9632    0.9786 C   0  0  0  0  0  0  0  0  0  0  0  0
   -3.5362   -1.7471    1.2904 C   0  0  0  0  0  0  0  0  0  0  0  0
   -2.7136    0.6450    1.3300 C   0  0  0  0  0  0  0  0  0  0  0  0
   -3.7646   -4.1243    0.9439 C   0  0  0  0  0  0  0  0  0  0  0  0
   -4.8950   -1.6010    1.5854 C   0  0  0  0  0  0  0  0  0  0  0  0
   -2.8023    1.2661   -0.0414 C   0  0  0  0  0  0  0  0  0  0  0  0
   -5.1348   -4.0128    1.2426 C   0  0  0  0  0  0  0  0  0  0  0  0
   -5.6974   -2.7566    1.5607 C   0  0  0  0  0  0  0  0  0  0  0  0
   -3.8247    0.8879   -0.9297 C   0  0  0  0  0  0  0  0  0  0  0  0
   -1.8794    2.2479   -0.4403 C   0  0  0  0  0  0  0  0  0  0  0  0
   -3.9027    1.4610   -2.2026 C   0  0  0  0  0  0  0  0  0  0  0  0
   -1.9603    2.8183   -1.7142 C   0  0  0  0  0  0  0  0  0  0  0  0
   -2.9688    2.4228   -2.5965 C   0  0  0  0  0  0  0  0  0  0  0  0
   -3.0452    2.9769   -3.8315 F   0  0  0  0  0  0  0  0  0  0  0  0
    5.9822    0.5819    0.8877 H   0  0  0  0  0  0  0  0  0  0  0  0
    7.2598    2.6561   -2.5700 H   0  0  0  0  0  0  0  0  0  0  0  0
    4.9465    2.4935   -3.4654 H   0  0  0  0  0  0  0  0  0  0  0  0
    3.0434   -1.7835    0.7703 H   0  0  0  0  0  0  0  0  0  0  0  0
    4.7644   -1.3970    0.6683 H   0  0  0  0  0  0  0  0  0  0  0  0
    3.7994   -0.7290    2.0385 H   0  0  0  0  0  0  0  0  0  0  0  0
    2.1956    1.8679   -0.1371 H   0  0  0  0  0  0  0  0  0  0  0  0
    2.1039    1.0203    2.3106 H   0  0  0  0  0  0  0  0  0  0  0  0
    0.6427    1.6399    1.5095 H   0  0  0  0  0  0  0  0  0  0  0  0
    1.8674   -0.0280   -1.8987 H   0  0  0  0  0  0  0  0  0  0  0  0
    0.4652    0.9099   -1.3146 H   0  0  0  0  0  0  0  0  0  0  0  0
   -0.0576   -0.2993    2.7012 H   0  0  0  0  0  0  0  0  0  0  0  0
    1.3036   -1.2892    2.1317 H   0  0  0  0  0  0  0  0  0  0  0  0
    1.2385   -1.9559   -0.5161 H   0  0  0  0  0  0  0  0  0  0  0  0
   -0.2089   -1.3872   -1.3986 H   0  0  0  0  0  0  0  0  0  0  0  0
   -3.6242    0.9065    1.9076 H   0  0  0  0  0  0  0  0  0  0  0  0
   -1.8562    1.0619    1.8980 H   0  0  0  0  0  0  0  0  0  0  0  0
   -3.3244   -5.0801    0.6908 H   0  0  0  0  0  0  0  0  0  0  0  0
   -5.3285   -0.6395    1.8233 H   0  0  0  0  0  0  0  0  0  0  0  0
   -5.7622   -4.8944    1.2244 H   0  0  0  0  0  0  0  0  0  0  0  0
   -6.7536   -2.6821    1.7845 H   0  0  0  0  0  0  0  0  0  0  0  0
   -4.5602    0.1494   -0.6411 H   0  0  0  0  0  0  0  0  0  0  0  0
   -1.0976    2.5752    0.2310 H   0  0  0  0  0  0  0  0  0  0  0  0
   -4.6891    1.1594   -2.8826 H   0  0  0  0  0  0  0  0  0  0  0  0
   -1.2403    3.5682   -2.0156 H   0  0  0  0  0  0  0  0  0  0  0  0
  1  2  2  0
  2  3  1  0
  4  2  1  0
  5  4  2  0
  6  5  1  0
  7  6  2  0
  8  7  1  0
  3  7  1  0
  9  8  1  0
  8 10  1  0
 10 11  1  0
 12 10  1  0
 11 13  1  0
 14 12  1  0
 13 15  1  0
 15 14  1  0
 15 16  1  0
 16 17  2  0
 18 16  1  0
 17 19  1  0
 20 18  1  0
 18 21  1  0
 19 22  2  0
 20 19  1  0
 23 20  2  0
 21 24  1  0
 22 25  1  0
 26 23  1  0
 24 27  2  0
 28 24  1  0
 25 26  2  0
 27 29  1  0
 30 28  2  0
 29 31  2  0
 31 30  1  0
 31 32  1  0
  3 33  1  0
  4 34  1  0
  5 35  1  0
  9 36  1  0
  9 37  1  0
  9 38  1  0
 10 39  1  0
 11 40  1  0
 11 41  1  0
 12 42  1  0
 12 43  1  0
 13 44  1  0
 13 45  1  0
 14 46  1  0
 14 47  1  0
 21 48  1  0
 21 49  1  0
 22 50  1  0
 23 51  1  0
 25 52  1  0
 26 53  1  0
 27 54  1  0
 28 55  1  0
 29 56  1  0
 30 57  1  0
M  END
> <ID>
HT1420

> <Class>
1.0

> <Clusters>
182

> <Fold>
4

$$$$