
     RDKit          3D

 40 42  0  0  0  0  0  0  0  0999 V2000
   -1.6986   -0.3382   -2.4553 C   0  0  0  0  0  0  0  0  0  0  0  0
   -1.0700   -1.2320   -1.3857 C   0  0  0  0  0  0  0  0  0  0  0  0
    0.2928   -1.5905   -1.7939 N   0  0  0  0  0  0  0  0  0  0  0  0
    1.4733   -1.0131   -1.2225 C   0  0  0  0  0  0  0  0  0  0  0  0
    2.7182   -1.2177   -1.8316 C   0  0  0  0  0  0  0  0  0  0  0  0
    3.8799   -0.6645   -1.2828 C   0  0  0  0  0  0  0  0  0  0  0  0
    5.4105   -0.9666   -2.0988 Cl  0  0  0  0  0  0  0  0  0  0  0  0
    3.8023    0.1047   -0.1044 C   0  0  0  0  0  0  0  0  0  0  0  0
    2.5544    0.2940    0.5096 C   0  0  0  0  0  0  0  0  0  0  0  0
    1.3905   -0.2616   -0.0481 C   0  0  0  0  0  0  0  0  0  0  0  0
    0.0779   -0.0955    0.5920 C   0  0  0  0  0  0  0  0  0  0  0  0
   -0.0013    0.4447    1.7302 O   0  0  0  0  0  0  0  0  0  0  0  0
   -1.1130   -0.5683   -0.0662 N   0  0  0  0  0  0  0  0  0  0  0  0
   -2.3845   -0.4399    0.5994 C   0  0  0  0  0  0  0  0  0  0  0  0
   -3.0270   -1.5949    1.0734 C   0  0  0  0  0  0  0  0  0  0  0  0
   -4.2535   -1.5037    1.7338 C   0  0  0  0  0  0  0  0  0  0  0  0
   -4.8495   -0.2583    1.9320 C   0  0  0  0  0  0  0  0  0  0  0  0
   -4.2241    0.8998    1.4652 C   0  0  0  0  0  0  0  0  0  0  0  0
   -2.9982    0.8239    0.7826 C   0  0  0  0  0  0  0  0  0  0  0  0
   -2.3504    2.0984    0.3126 C   0  0  0  0  0  0  0  0  0  0  0  0
    5.2512    0.8177    0.6167 S   0  0  0  0  0  0  0  0  0  0  0  0
    6.1791   -0.2805    1.0543 O   0  0  0  0  0  0  0  0  0  0  0  0
    5.9417    1.6858   -0.3978 O   0  0  0  0  0  0  0  0  0  0  0  0
    4.8430    1.7859    1.9916 N   0  0  0  0  0  0  0  0  0  0  0  0
   -1.7069   -0.8653   -3.4329 H   0  0  0  0  0  0  0  0  0  0  0  0
   -2.7464   -0.0885   -2.1854 H   0  0  0  0  0  0  0  0  0  0  0  0
   -1.1149    0.6006   -2.5612 H   0  0  0  0  0  0  0  0  0  0  0  0
   -1.6578   -2.1741   -1.3298 H   0  0  0  0  0  0  0  0  0  0  0  0
    0.3943   -2.2177   -2.6244 H   0  0  0  0  0  0  0  0  0  0  0  0
    2.7841   -1.8075   -2.7376 H   0  0  0  0  0  0  0  0  0  0  0  0
    2.4862    0.8712    1.4218 H   0  0  0  0  0  0  0  0  0  0  0  0
   -2.5672   -2.5661    0.9414 H   0  0  0  0  0  0  0  0  0  0  0  0
   -4.7389   -2.3995    2.0989 H   0  0  0  0  0  0  0  0  0  0  0  0
   -5.7968   -0.1893    2.4511 H   0  0  0  0  0  0  0  0  0  0  0  0
   -4.6990    1.8587    1.6337 H   0  0  0  0  0  0  0  0  0  0  0  0
   -1.7355    2.5252    1.1318 H   0  0  0  0  0  0  0  0  0  0  0  0
   -1.7056    1.9254   -0.5719 H   0  0  0  0  0  0  0  0  0  0  0  0
   -3.1217    2.8424    0.0205 H   0  0  0  0  0  0  0  0  0  0  0  0
    4.3403    2.6291    1.6342 H   0  0  0  0  0  0  0  0  0  0  0  0
    5.7409    2.1255    2.4035 H   0  0  0  0  0  0  0  0  0  0  0  0
  1  2  1  0
  2  3  1  0
  3  4  1  0
  4  5  2  0
  5  6  1  0
  6  7  1  0
  6  8  2  0
  8  9  1  0
  9 10  2  0
 10  4  1  0
 10 11  1  0
 11 12  2  0
 11 13  1  0
 13  2  1  0
 13 14  1  0
 14 15  2  0
 15 16  1  0
 16 17  2  0
 17 18  1  0
 18 19  2  0
 19 14  1  0
 19 20  1  0
  8 21  1  0
 21 22  2  0
 21 23  2  0
 21 24  1  0
  1 25  1  0
  1 26  1  0
  1 27  1  0
  2 28  1  0
  3 29  1  0
  5 30  1  0
  9 31  1  0
 15 32  1  0
 16 33  1  0
 17 34  1  0
 18 35  1  0
 20 36  1  0
 20 37  1  0
 20 38  1  0
 24 39  1  0
 24 40  1  0
M  END
> <ID>
HT1378

> <Class>
1.0

> <Clusters>
32

> <Fold>
4

$$$$