
     RDKit          3D

 28 28  0  0  0  0  0  0  0  0999 V2000
   -1.6291    0.1559    1.6736 C   0  0  0  0  0  0  0  0  0  0  0  0
   -1.8612   -0.0045    0.1584 C   0  0  2  0  0  0  0  0  0  0  0  0
   -1.8267   -1.4365   -0.1781 N   0  0  0  0  0  0  0  0  0  0  0  0
   -0.7641    0.7480   -0.6432 C   0  0  0  0  0  0  0  0  0  0  0  0
    0.6311    0.2210   -0.3936 C   0  0  0  0  0  0  0  0  0  0  0  0
    1.1015   -0.9051   -1.0883 C   0  0  0  0  0  0  0  0  0  0  0  0
    2.3938   -1.3856   -0.8617 C   0  0  0  0  0  0  0  0  0  0  0  0
    3.2350   -0.7426    0.0561 C   0  0  0  0  0  0  0  0  0  0  0  0
    4.5242   -1.2195    0.2863 O   0  0  0  0  0  0  0  0  0  0  0  0
    2.7787    0.3880    0.7457 C   0  0  0  0  0  0  0  0  0  0  0  0
    3.6185    1.0270    1.6562 O   0  0  0  0  0  0  0  0  0  0  0  0
    1.4820    0.8701    0.5169 C   0  0  0  0  0  0  0  0  0  0  0  0
   -3.2112    0.5990   -0.1878 C   0  0  0  0  0  0  0  0  0  0  0  0
   -4.1206   -0.1016   -0.7103 O   0  0  0  0  0  0  0  0  0  0  0  0
   -3.4533    1.9454    0.0746 O   0  0  0  0  0  0  0  0  0  0  0  0
   -1.5436    1.2290    1.9505 H   0  0  0  0  0  0  0  0  0  0  0  0
   -0.6991   -0.3652    1.9855 H   0  0  0  0  0  0  0  0  0  0  0  0
   -2.4734   -0.2876    2.2446 H   0  0  0  0  0  0  0  0  0  0  0  0
   -2.0216   -1.5628   -1.1988 H   0  0  0  0  0  0  0  0  0  0  0  0
   -2.5781   -1.9416    0.3473 H   0  0  0  0  0  0  0  0  0  0  0  0
   -0.7978    1.8319   -0.3922 H   0  0  0  0  0  0  0  0  0  0  0  0
   -0.9834    0.6813   -1.7322 H   0  0  0  0  0  0  0  0  0  0  0  0
    0.4696   -1.4090   -1.8087 H   0  0  0  0  0  0  0  0  0  0  0  0
    2.7418   -2.2567   -1.4020 H   0  0  0  0  0  0  0  0  0  0  0  0
    4.8820   -2.0346   -0.1979 H   0  0  0  0  0  0  0  0  0  0  0  0
    3.3171    1.8465    2.1705 H   0  0  0  0  0  0  0  0  0  0  0  0
    1.1350    1.7437    1.0550 H   0  0  0  0  0  0  0  0  0  0  0  0
   -4.3471    2.3663   -0.1489 H   0  0  0  0  0  0  0  0  0  0  0  0
  2  1  1  0
  2  3  1  0
  2  4  1  0
  4  5  1  0
  5  6  2  0
  6  7  1  0
  7  8  2  0
  8  9  1  0
  8 10  1  0
 10 11  1  0
 10 12  2  0
 12  5  1  0
  2 13  1  6
 13 14  2  0
 13 15  1  0
  1 16  1  0
  1 17  1  0
  1 18  1  0
  3 19  1  0
  3 20  1  0
  4 21  1  0
  4 22  1  0
  6 23  1  0
  7 24  1  0
  9 25  1  0
 11 26  1  0
 12 27  1  0
 15 28  1  0
M  END
> <ID>
HT1361

> <Class>
1.0

> <Clusters>
146

> <Fold>
4

$$$$