
     RDKit          3D

 31 31  0  0  0  0  0  0  0  0999 V2000
    3.2305   -0.5513    0.9364 O   0  0  0  0  0  0  0  0  0  0  0  0
    3.0736   -0.5747   -0.4553 C   0  0  0  0  0  0  0  0  0  0  0  0
    1.9146    0.3362   -0.8621 C   0  0  0  0  0  0  0  0  0  0  0  0
    0.6525   -0.1052   -0.2109 N   0  0  0  0  0  0  0  0  0  0  0  0
   -0.0207   -1.0873   -1.0923 C   0  0  0  0  0  0  0  0  0  0  0  0
   -1.2456   -1.6912   -0.4104 C   0  0  2  0  0  0  0  0  0  0  0  0
   -1.8267   -2.6358   -1.2723 O   0  0  0  0  0  0  0  0  0  0  0  0
   -2.2482   -0.5743   -0.0990 C   0  0  1  0  0  0  0  0  0  0  0  0
   -3.3493   -1.1024    0.5962 O   0  0  0  0  0  0  0  0  0  0  0  0
   -1.5773    0.5030    0.7661 C   0  0  2  0  0  0  0  0  0  0  0  0
   -2.4724    1.5750    0.9348 O   0  0  0  0  0  0  0  0  0  0  0  0
   -0.2603    1.0289    0.1256 C   0  0  1  0  0  0  0  0  0  0  0  0
    0.4094    2.0175    1.1257 C   0  0  0  0  0  0  0  0  0  0  0  0
    0.9124    3.1337    0.4422 O   0  0  0  0  0  0  0  0  0  0  0  0
    3.9935   -1.1532    1.1374 H   0  0  0  0  0  0  0  0  0  0  0  0
    2.8872   -1.6153   -0.7983 H   0  0  0  0  0  0  0  0  0  0  0  0
    4.0058   -0.2101   -0.9420 H   0  0  0  0  0  0  0  0  0  0  0  0
    2.2068    1.3639   -0.5774 H   0  0  0  0  0  0  0  0  0  0  0  0
    1.8260    0.3501   -1.9726 H   0  0  0  0  0  0  0  0  0  0  0  0
   -0.3254   -0.6101   -2.0529 H   0  0  0  0  0  0  0  0  0  0  0  0
    0.6714   -1.9225   -1.3352 H   0  0  0  0  0  0  0  0  0  0  0  0
   -0.9170   -2.1837    0.5365 H   0  0  0  0  0  0  0  0  0  0  0  0
   -2.3304   -3.2749   -0.7036 H   0  0  0  0  0  0  0  0  0  0  0  0
   -2.5880   -0.1017   -1.0528 H   0  0  0  0  0  0  0  0  0  0  0  0
   -3.9830   -1.4500   -0.0844 H   0  0  0  0  0  0  0  0  0  0  0  0
   -1.3251    0.0552    1.7586 H   0  0  0  0  0  0  0  0  0  0  0  0
   -3.0845    1.3290    1.6769 H   0  0  0  0  0  0  0  0  0  0  0  0
   -0.5290    1.5783   -0.8074 H   0  0  0  0  0  0  0  0  0  0  0  0
    1.2283    1.5052    1.6799 H   0  0  0  0  0  0  0  0  0  0  0  0
   -0.3109    2.3814    1.8925 H   0  0  0  0  0  0  0  0  0  0  0  0
    1.3816    3.6865    1.1200 H   0  0  0  0  0  0  0  0  0  0  0  0
  1  2  1  0
  2  3  1  0
  3  4  1  0
  4  5  1  0
  5  6  1  0
  6  7  1  0
  6  8  1  0
  8  9  1  0
  8 10  1  0
 10 11  1  0
 10 12  1  0
 12  4  1  0
 12 13  1  0
 13 14  1  0
  1 15  1  0
  2 16  1  0
  2 17  1  0
  3 18  1  0
  3 19  1  0
  5 20  1  0
  5 21  1  0
  6 22  1  1
  7 23  1  0
  8 24  1  6
  9 25  1  0
 10 26  1  1
 11 27  1  0
 12 28  1  6
 13 29  1  0
 13 30  1  0
 14 31  1  0
M  END
> <ID>
HT1399

> <Class>
1.0

> <Clusters>
171

> <Fold>
4

$$$$