
     RDKit          3D

 21 21  0  0  0  0  0  0  0  0999 V2000
   -0.9092   -2.1821    0.9513 C   0  0  0  0  0  0  0  0  0  0  0  0
   -1.0644   -0.6979    0.7983 C   0  0  0  0  0  0  0  0  0  0  0  0
   -1.8594    0.0163    1.6248 N   0  0  0  0  0  0  0  0  0  0  0  0
   -1.7411    1.2871    1.1981 C   0  0  0  0  0  0  0  0  0  0  0  0
   -0.8751    1.3260    0.1290 C   0  0  0  0  0  0  0  0  0  0  0  0
   -0.5007    2.5250   -0.5700 N   0  0  0  0  0  0  0  0  0  0  0  0
    0.5002    2.5593   -1.3126 O   0  0  0  0  0  0  0  0  0  0  0  0
   -1.1775    3.6956   -0.3176 O   0  0  0  0  0  0  0  0  0  0  0  0
   -0.4512    0.0684   -0.1411 N   0  0  0  0  0  0  0  0  0  0  0  0
    0.4548   -0.3878   -1.2044 C   0  0  0  0  0  0  0  0  0  0  0  0
    1.8803   -0.5519   -0.6764 C   0  0  0  0  0  0  0  0  0  0  0  0
    2.3722    0.6770   -0.2204 O   0  0  0  0  0  0  0  0  0  0  0  0
   -0.5442   -2.4067    1.9750 H   0  0  0  0  0  0  0  0  0  0  0  0
   -1.8953   -2.6703    0.8068 H   0  0  0  0  0  0  0  0  0  0  0  0
   -0.1919   -2.6133    0.2274 H   0  0  0  0  0  0  0  0  0  0  0  0
   -2.2480    2.1297    1.6493 H   0  0  0  0  0  0  0  0  0  0  0  0
    0.4415    0.3066   -2.0675 H   0  0  0  0  0  0  0  0  0  0  0  0
    0.0998   -1.3574   -1.6120 H   0  0  0  0  0  0  0  0  0  0  0  0
    1.8902   -1.2927    0.1534 H   0  0  0  0  0  0  0  0  0  0  0  0
    2.5268   -0.9315   -1.4985 H   0  0  0  0  0  0  0  0  0  0  0  0
    3.2922    0.5007    0.1070 H   0  0  0  0  0  0  0  0  0  0  0  0
  1  2  1  0
  2  3  2  0
  3  4  1  0
  4  5  2  0
  5  6  1  0
  6  7  2  0
  6  8  1  0
  5  9  1  0
  9  2  1  0
  9 10  1  0
 10 11  1  0
 11 12  1  0
  1 13  1  0
  1 14  1  0
  1 15  1  0
  4 16  1  0
 10 17  1  0
 10 18  1  0
 11 19  1  0
 11 20  1  0
 12 21  1  0
M  CHG  2   6   1   8  -1
M  END
> <ID>
HT1382

> <Class>
1.0

> <Clusters>
170

> <Fold>
4

$$$$