
     RDKit          3D

 57 60  0  0  0  0  0  0  0  0999 V2000
   -3.3782    2.3251   -2.0285 C   0  0  0  0  0  0  0  0  0  0  0  0
   -2.5709    1.0727   -1.6674 C   0  0  1  0  0  0  0  0  0  0  0  0
   -1.0910    1.4235   -1.4067 C   0  0  0  0  0  0  0  0  0  0  0  0
   -0.3962    0.2710   -0.6627 C   0  0  1  0  0  0  0  0  0  0  0  0
    1.1496    0.4692   -0.5816 C   0  0  2  0  0  0  0  0  0  0  0  0
    1.8091    0.2024   -1.9519 C   0  0  0  0  0  0  0  0  0  0  0  0
    2.7684   -0.9614   -1.7676 C   0  0  0  0  0  0  0  0  0  0  0  0
    3.1721   -0.9495   -0.2937 C   0  0  1  0  0  0  0  0  0  0  0  0
    3.5415   -2.2603    0.0744 O   0  0  0  0  0  0  0  0  0  0  0  0
    4.3718    0.0004   -0.1307 C   0  0  0  0  0  0  0  0  0  0  0  0
    4.2632    1.1743   -0.4585 O   0  0  0  0  0  0  0  0  0  0  0  0
    5.6901   -0.4852    0.4252 C   0  0  0  0  0  0  0  0  0  0  0  0
    6.6729    0.5134    0.3513 O   0  0  0  0  0  0  0  0  0  0  0  0
    1.8696   -0.4690    0.4567 C   0  0  1  0  0  0  0  0  0  0  0  0
    2.2357    0.2682    1.7793 C   0  0  0  0  0  0  0  0  0  0  0  0
    0.9500   -1.6874    0.8103 C   0  0  0  0  0  0  0  0  0  0  0  0
   -0.4826   -1.3144    1.2956 C   0  0  2  0  0  0  0  0  0  0  0  0
   -1.3618   -2.3648    0.9691 O   0  0  0  0  0  0  0  0  0  0  0  0
   -0.9844    0.0714    0.7602 C   0  0  2  0  0  0  0  0  0  0  0  0
   -2.5450    0.3672    0.8886 C   0  0  2  0  0  0  0  0  0  0  0  0
   -2.7789    1.7841    1.4725 C   0  0  0  0  0  0  0  0  0  0  0  0
   -3.2121   -0.5645    1.9014 C   0  0  0  0  0  0  0  0  0  0  0  0
   -4.3065   -1.2766    1.6346 C   0  0  0  0  0  0  0  0  0  0  0  0
   -4.9209   -1.2216    0.3110 C   0  0  0  0  0  0  0  0  0  0  0  0
   -5.9662   -1.8811    0.0713 O   0  0  0  0  0  0  0  0  0  0  0  0
   -4.3070   -0.4089   -0.7395 C   0  0  0  0  0  0  0  0  0  0  0  0
   -3.2038    0.3218   -0.5026 C   0  0  0  0  0  0  0  0  0  0  0  0
   -3.4178    3.0330   -1.1748 H   0  0  0  0  0  0  0  0  0  0  0  0
   -4.4166    2.0475   -2.3082 H   0  0  0  0  0  0  0  0  0  0  0  0
   -2.9137    2.8393   -2.8968 H   0  0  0  0  0  0  0  0  0  0  0  0
   -2.5823    0.3974   -2.5538 H   0  0  0  0  0  0  0  0  0  0  0  0
   -0.5975    1.5965   -2.3873 H   0  0  0  0  0  0  0  0  0  0  0  0
   -0.9783    2.3673   -0.8360 H   0  0  0  0  0  0  0  0  0  0  0  0
   -0.5955   -0.6520   -1.2542 H   0  0  0  0  0  0  0  0  0  0  0  0
    1.3461    1.5314   -0.3103 H   0  0  0  0  0  0  0  0  0  0  0  0
    2.3732    1.1031   -2.2789 H   0  0  0  0  0  0  0  0  0  0  0  0
    1.0817   -0.0413   -2.7567 H   0  0  0  0  0  0  0  0  0  0  0  0
    3.6417   -0.8788   -2.4526 H   0  0  0  0  0  0  0  0  0  0  0  0
    2.2357   -1.9081   -2.0099 H   0  0  0  0  0  0  0  0  0  0  0  0
    3.7077   -2.2640    1.0527 H   0  0  0  0  0  0  0  0  0  0  0  0
    6.0338   -1.3565   -0.1706 H   0  0  0  0  0  0  0  0  0  0  0  0
    5.5571   -0.8156    1.4799 H   0  0  0  0  0  0  0  0  0  0  0  0
    6.5045    1.1348    1.1074 H   0  0  0  0  0  0  0  0  0  0  0  0
    2.9662   -0.3321    2.3618 H   0  0  0  0  0  0  0  0  0  0  0  0
    2.6838    1.2643    1.5845 H   0  0  0  0  0  0  0  0  0  0  0  0
    1.3641    0.4258    2.4411 H   0  0  0  0  0  0  0  0  0  0  0  0
    1.4259   -2.3158    1.5946 H   0  0  0  0  0  0  0  0  0  0  0  0
    0.8607   -2.3337   -0.0901 H   0  0  0  0  0  0  0  0  0  0  0  0
   -0.4512   -1.2463    2.4051 H   0  0  0  0  0  0  0  0  0  0  0  0
   -1.4997   -2.3553   -0.0130 H   0  0  0  0  0  0  0  0  0  0  0  0
   -0.4929    0.8357    1.3966 H   0  0  0  0  0  0  0  0  0  0  0  0
   -2.2828    2.5778    0.8868 H   0  0  0  0  0  0  0  0  0  0  0  0
   -2.3823    1.8537    2.5094 H   0  0  0  0  0  0  0  0  0  0  0  0
   -3.8661    2.0171    1.5050 H   0  0  0  0  0  0  0  0  0  0  0  0
   -2.8012   -0.6192    2.9030 H   0  0  0  0  0  0  0  0  0  0  0  0
   -4.7443   -1.8989    2.4053 H   0  0  0  0  0  0  0  0  0  0  0  0
   -4.7485   -0.4269   -1.7293 H   0  0  0  0  0  0  0  0  0  0  0  0
  2  1  1  0
  2  3  1  0
  4  3  1  0
  4  5  1  0
  5  6  1  0
  6  7  1  0
  7  8  1  0
  8  9  1  1
  8 10  1  0
 10 11  2  0
 10 12  1  0
 12 13  1  0
  8 14  1  0
 14  5  1  0
 14 15  1  1
 14 16  1  0
 16 17  1  0
 17 18  1  0
 17 19  1  0
 19  4  1  0
 19 20  1  0
 20 21  1  1
 20 22  1  0
 22 23  2  0
 23 24  1  0
 24 25  2  0
 24 26  1  0
 26 27  2  0
 27  2  1  0
 27 20  1  0
  1 28  1  0
  1 29  1  0
  1 30  1  0
  2 31  1  6
  3 32  1  0
  3 33  1  0
  4 34  1  6
  5 35  1  1
  6 36  1  0
  6 37  1  0
  7 38  1  0
  7 39  1  0
  9 40  1  0
 12 41  1  0
 12 42  1  0
 13 43  1  0
 15 44  1  0
 15 45  1  0
 15 46  1  0
 16 47  1  0
 16 48  1  0
 17 49  1  1
 18 50  1  0
 19 51  1  1
 21 52  1  0
 21 53  1  0
 21 54  1  0
 22 55  1  0
 23 56  1  0
 26 57  1  0
M  END
> <ID>
HT1367

> <Class>
1.0

> <Clusters>
202

> <Fold>
4

$$$$