
     RDKit          3D

 65 68  0  0  0  0  0  0  0  0999 V2000
   -5.7739   -2.7073   -0.6172 O   0  0  0  0  0  0  0  0  0  0  0  0
   -4.6958   -2.3487   -0.0693 C   0  0  0  0  0  0  0  0  0  0  0  0
   -4.5238   -0.9217    0.3770 C   0  0  0  0  0  0  0  0  0  0  0  0
   -3.6590   -3.2671    0.1265 O   0  0  0  0  0  0  0  0  0  0  0  0
   -3.7522   -4.6270   -0.2779 C   0  0  0  0  0  0  0  0  0  0  0  0
   -3.3176   -0.2590   -0.3460 C   0  0  2  0  0  0  0  0  0  0  0  0
   -4.3587   -0.9022    1.8753 C   0  0  0  0  0  0  0  0  0  0  0  0
   -1.9843   -0.5438    0.3315 C   0  0  0  0  0  0  0  0  0  0  0  0
   -3.5165    1.2422   -0.4973 C   0  0  0  0  0  0  0  0  0  0  0  0
   -3.1740   -0.9236    2.4068 N   0  0  0  0  0  0  0  0  0  0  0  0
   -5.5556   -0.9590    2.7730 C   0  0  0  0  0  0  0  0  0  0  0  0
   -1.9557   -0.8708    1.6486 C   0  0  0  0  0  0  0  0  0  0  0  0
   -0.7505   -0.3732   -0.4777 C   0  0  0  0  0  0  0  0  0  0  0  0
   -3.6791    1.8007   -1.7767 C   0  0  0  0  0  0  0  0  0  0  0  0
   -3.5383    2.0941    0.6249 C   0  0  0  0  0  0  0  0  0  0  0  0
   -0.6810   -1.1592    2.3899 C   0  0  0  0  0  0  0  0  0  0  0  0
   -0.7797   -0.6120   -1.7163 O   0  0  0  0  0  0  0  0  0  0  0  0
    0.4256    0.1006    0.1137 O   0  0  0  0  0  0  0  0  0  0  0  0
   -3.8626    3.1754   -1.9311 C   0  0  0  0  0  0  0  0  0  0  0  0
   -3.7216    3.4806    0.4768 C   0  0  0  0  0  0  0  0  0  0  0  0
    1.6626    0.2195   -0.5871 C   0  0  2  0  0  0  0  0  0  0  0  0
   -3.8852    4.0120   -0.8142 C   0  0  0  0  0  0  0  0  0  0  0  0
   -3.7398    4.3403    1.6318 N   0  0  0  0  0  0  0  0  0  0  0  0
    2.3002   -1.1420   -0.8267 C   0  0  0  0  0  0  0  0  0  0  0  0
    2.6733    0.9847    0.2552 C   0  0  0  0  0  0  0  0  0  0  0  0
   -3.9217    5.5696    1.5074 O   0  0  0  0  0  0  0  0  0  0  0  0
   -3.5523    3.8229    2.8940 O   0  0  0  0  0  0  0  0  0  0  0  0
    3.6977   -1.0510   -0.2265 C   0  0  0  0  0  0  0  0  0  0  0  0
    3.9889    0.3654    0.0474 N   0  0  0  0  0  0  0  0  0  0  0  0
    4.7039    0.9999   -1.0822 C   0  0  0  0  0  0  0  0  0  0  0  0
    6.1511    0.5801   -1.0916 C   0  0  0  0  0  0  0  0  0  0  0  0
    6.9786    0.8882    0.0010 C   0  0  0  0  0  0  0  0  0  0  0  0
    6.6896   -0.1136   -2.1888 C   0  0  0  0  0  0  0  0  0  0  0  0
    8.3224    0.5020   -0.0019 C   0  0  0  0  0  0  0  0  0  0  0  0
    8.0342   -0.4990   -2.1868 C   0  0  0  0  0  0  0  0  0  0  0  0
    8.8492   -0.1927   -1.0940 C   0  0  0  0  0  0  0  0  0  0  0  0
   -5.4479   -0.3601    0.1100 H   0  0  0  0  0  0  0  0  0  0  0  0
   -4.5977   -5.1217    0.2451 H   0  0  0  0  0  0  0  0  0  0  0  0
   -3.9025   -4.6864   -1.3765 H   0  0  0  0  0  0  0  0  0  0  0  0
   -2.8105   -5.1505   -0.0148 H   0  0  0  0  0  0  0  0  0  0  0  0
   -3.2764   -0.7064   -1.3652 H   0  0  0  0  0  0  0  0  0  0  0  0
   -5.5751   -0.0579    3.4209 H   0  0  0  0  0  0  0  0  0  0  0  0
   -6.4965   -0.9964    2.1847 H   0  0  0  0  0  0  0  0  0  0  0  0
   -5.5011   -1.8670    3.4093 H   0  0  0  0  0  0  0  0  0  0  0  0
   -3.6652    1.1729   -2.6591 H   0  0  0  0  0  0  0  0  0  0  0  0
   -3.4061    1.6799    1.6136 H   0  0  0  0  0  0  0  0  0  0  0  0
   -0.9085   -1.6483    3.3607 H   0  0  0  0  0  0  0  0  0  0  0  0
   -0.1404   -0.2123    2.5979 H   0  0  0  0  0  0  0  0  0  0  0  0
   -0.0349   -1.8508    1.8085 H   0  0  0  0  0  0  0  0  0  0  0  0
   -3.9879    3.5942   -2.9213 H   0  0  0  0  0  0  0  0  0  0  0  0
    1.5106    0.7552   -1.5516 H   0  0  0  0  0  0  0  0  0  0  0  0
   -4.0291    5.0747   -0.9603 H   0  0  0  0  0  0  0  0  0  0  0  0
    2.3644   -1.3456   -1.9175 H   0  0  0  0  0  0  0  0  0  0  0  0
    1.7244   -1.9602   -0.3415 H   0  0  0  0  0  0  0  0  0  0  0  0
    2.6585    2.0706    0.0094 H   0  0  0  0  0  0  0  0  0  0  0  0
    2.4139    0.8925    1.3335 H   0  0  0  0  0  0  0  0  0  0  0  0
    4.4480   -1.5272   -0.8964 H   0  0  0  0  0  0  0  0  0  0  0  0
    3.7210   -1.6052    0.7373 H   0  0  0  0  0  0  0  0  0  0  0  0
    4.6904    2.1073   -0.9747 H   0  0  0  0  0  0  0  0  0  0  0  0
    4.2082    0.7598   -2.0510 H   0  0  0  0  0  0  0  0  0  0  0  0
    6.5815    1.4266    0.8531 H   0  0  0  0  0  0  0  0  0  0  0  0
    6.0701   -0.3586   -3.0421 H   0  0  0  0  0  0  0  0  0  0  0  0
    8.9559    0.7405    0.8426 H   0  0  0  0  0  0  0  0  0  0  0  0
    8.4449   -1.0341   -3.0327 H   0  0  0  0  0  0  0  0  0  0  0  0
    9.8895   -0.4906   -1.0934 H   0  0  0  0  0  0  0  0  0  0  0  0
  1  2  2  0
  2  3  1  0
  4  2  1  0
  5  4  1  0
  3  6  1  0
  7  3  1  0
  6  8  1  0
  6  9  1  0
 10  7  2  0
  7 11  1  0
  8 12  2  0
  8 13  1  0
  9 14  2  0
 15  9  1  0
 12 10  1  0
 12 16  1  0
 13 17  2  0
 13 18  1  0
 14 19  1  0
 20 15  2  0
 21 18  1  0
 19 22  2  0
 22 20  1  0
 20 23  1  0
 21 24  1  0
 25 21  1  0
 23 26  2  0
 23 27  1  0
 24 28  1  0
 29 25  1  0
 28 29  1  0
 29 30  1  0
 30 31  1  0
 31 32  2  0
 33 31  1  0
 32 34  1  0
 35 33  2  0
 34 36  2  0
 36 35  1  0
  3 37  1  0
  5 38  1  0
  5 39  1  0
  5 40  1  0
  6 41  1  6
 11 42  1  0
 11 43  1  0
 11 44  1  0
 14 45  1  0
 15 46  1  0
 16 47  1  0
 16 48  1  0
 16 49  1  0
 19 50  1  0
 21 51  1  6
 22 52  1  0
 24 53  1  0
 24 54  1  0
 25 55  1  0
 25 56  1  0
 28 57  1  0
 28 58  1  0
 30 59  1  0
 30 60  1  0
 32 61  1  0
 33 62  1  0
 34 63  1  0
 35 64  1  0
 36 65  1  0
M  CHG  2  23   1  27  -1
M  END
> <ID>
HT0228

> <Class>
0.0

> <Clusters>
178

> <Fold>
4

$$$$