
     RDKit          3D

 50 50  0  0  0  0  0  0  0  0999 V2000
   -3.5291   -1.6598    3.4915 C   0  0  0  0  0  0  0  0  0  0  0  0
   -2.4682   -1.5937    2.3973 C   0  0  0  0  0  0  0  0  0  0  0  0
   -2.2647   -0.1525    1.9128 C   0  0  0  0  0  0  0  0  0  0  0  0
   -1.1693   -0.0672    0.9300 N   0  0  0  0  0  0  0  0  0  0  0  0
   -1.2668   -0.7768   -0.3617 C   0  0  0  0  0  0  0  0  0  0  0  0
   -2.5630   -0.4227   -1.1105 C   0  0  0  0  0  0  0  0  0  0  0  0
   -2.5215   -0.9126   -2.5568 C   0  0  0  0  0  0  0  0  0  0  0  0
    0.0657    0.5636    1.3372 C   0  0  0  0  0  0  0  0  0  0  0  0
    0.5329    0.3109    2.4851 O   0  0  0  0  0  0  0  0  0  0  0  0
    0.8311    1.5242    0.4479 C   0  0  0  0  0  0  0  0  0  0  0  0
   -0.0736    2.4220   -0.4222 C   0  0  0  0  0  0  0  0  0  0  0  0
   -1.0239    3.2915    0.4137 C   0  0  0  0  0  0  0  0  0  0  0  0
   -1.8529    4.1704   -0.4761 C   0  0  0  0  0  0  0  0  0  0  0  0
   -3.0873    3.9568   -0.5964 O   0  0  0  0  0  0  0  0  0  0  0  0
   -1.2728    5.2272   -1.1701 O   0  0  0  0  0  0  0  0  0  0  0  0
    1.7736    0.7773   -0.3910 N   0  0  0  0  0  0  0  0  0  0  0  0
    2.9934    0.2302    0.1325 C   0  0  0  0  0  0  0  0  0  0  0  0
    3.4806    0.6934    1.2023 O   0  0  0  0  0  0  0  0  0  0  0  0
    3.6950   -0.8628   -0.5749 C   0  0  0  0  0  0  0  0  0  0  0  0
    5.0885   -1.0092   -0.4413 C   0  0  0  0  0  0  0  0  0  0  0  0
    5.7495   -2.0594   -1.0848 C   0  0  0  0  0  0  0  0  0  0  0  0
    5.0271   -2.9772   -1.8570 C   0  0  0  0  0  0  0  0  0  0  0  0
    3.6418   -2.8432   -1.9921 C   0  0  0  0  0  0  0  0  0  0  0  0
    2.9772   -1.7894   -1.3585 C   0  0  0  0  0  0  0  0  0  0  0  0
   -4.5156   -1.3185    3.1016 H   0  0  0  0  0  0  0  0  0  0  0  0
   -3.6317   -2.7090    3.8456 H   0  0  0  0  0  0  0  0  0  0  0  0
   -3.2368   -1.0227    4.3559 H   0  0  0  0  0  0  0  0  0  0  0  0
   -1.5090   -1.9918    2.7966 H   0  0  0  0  0  0  0  0  0  0  0  0
   -2.7941   -2.2407    1.5532 H   0  0  0  0  0  0  0  0  0  0  0  0
   -3.2038    0.2404    1.4676 H   0  0  0  0  0  0  0  0  0  0  0  0
   -2.0421    0.4954    2.7918 H   0  0  0  0  0  0  0  0  0  0  0  0
   -1.2224   -1.8730   -0.1861 H   0  0  0  0  0  0  0  0  0  0  0  0
   -0.3989   -0.5344   -1.0045 H   0  0  0  0  0  0  0  0  0  0  0  0
   -2.7221    0.6777   -1.1055 H   0  0  0  0  0  0  0  0  0  0  0  0
   -3.4303   -0.9015   -0.6055 H   0  0  0  0  0  0  0  0  0  0  0  0
   -3.4864   -0.6894   -3.0572 H   0  0  0  0  0  0  0  0  0  0  0  0
   -2.3604   -2.0131   -2.5858 H   0  0  0  0  0  0  0  0  0  0  0  0
   -1.7008   -0.4065   -3.1110 H   0  0  0  0  0  0  0  0  0  0  0  0
    1.4120    2.2164    1.1005 H   0  0  0  0  0  0  0  0  0  0  0  0
   -0.6558    1.8120   -1.1419 H   0  0  0  0  0  0  0  0  0  0  0  0
    0.5837    3.0857   -1.0273 H   0  0  0  0  0  0  0  0  0  0  0  0
   -0.4421    3.9296    1.1140 H   0  0  0  0  0  0  0  0  0  0  0  0
   -1.6959    2.6435    1.0141 H   0  0  0  0  0  0  0  0  0  0  0  0
   -0.2909    5.4516   -1.0536 H   0  0  0  0  0  0  0  0  0  0  0  0
    1.5651    0.6514   -1.4045 H   0  0  0  0  0  0  0  0  0  0  0  0
    5.6663   -0.3057    0.1520 H   0  0  0  0  0  0  0  0  0  0  0  0
    6.8244   -2.1604   -0.9830 H   0  0  0  0  0  0  0  0  0  0  0  0
    5.5404   -3.7972   -2.3442 H   0  0  0  0  0  0  0  0  0  0  0  0
    3.0819   -3.5636   -2.5805 H   0  0  0  0  0  0  0  0  0  0  0  0
    1.9020   -1.7172   -1.4591 H   0  0  0  0  0  0  0  0  0  0  0  0
  1  2  1  0
  2  3  1  0
  3  4  1  0
  4  5  1  0
  5  6  1  0
  6  7  1  0
  4  8  1  0
  8  9  2  0
  8 10  1  0
 10 11  1  0
 11 12  1  0
 12 13  1  0
 13 14  2  0
 13 15  1  0
 10 16  1  0
 16 17  1  0
 17 18  2  0
 17 19  1  0
 19 20  2  0
 20 21  1  0
 21 22  2  0
 22 23  1  0
 23 24  2  0
 24 19  1  0
  1 25  1  0
  1 26  1  0
  1 27  1  0
  2 28  1  0
  2 29  1  0
  3 30  1  0
  3 31  1  0
  5 32  1  0
  5 33  1  0
  6 34  1  0
  6 35  1  0
  7 36  1  0
  7 37  1  0
  7 38  1  0
 10 39  1  0
 11 40  1  0
 11 41  1  0
 12 42  1  0
 12 43  1  0
 15 44  1  0
 16 45  1  0
 20 46  1  0
 21 47  1  0
 22 48  1  0
 23 49  1  0
 24 50  1  0
M  END
> <ID>
HT3527

> <Class>
0.0

> <Clusters>
94

> <Fold>
4

$$$$