
     RDKit          3D

 56 59  0  0  0  0  0  0  0  0999 V2000
   -2.4373    3.4976    0.4270 O   0  0  0  0  0  0  0  0  0  0  0  0
   -2.3976    2.2761    0.3651 C   0  0  0  0  0  0  0  0  0  0  0  0
   -3.6361    1.5039    0.7488 C   0  0  0  0  0  0  0  0  0  0  0  0
   -1.0869    1.5966   -0.0026 C   0  0  1  0  0  0  0  0  0  0  0  0
   -0.2315    1.3235    1.2234 C   0  0  0  0  0  0  0  0  0  0  0  0
   -1.3535    0.2386   -0.6979 C   0  0  2  0  0  0  0  0  0  0  0  0
   -0.3904    2.4242   -0.9064 O   0  0  0  0  0  0  0  0  0  0  0  0
   -0.5793    1.7333    2.3223 O   0  0  0  0  0  0  0  0  0  0  0  0
    0.9928    0.4331    1.1072 C   0  0  0  0  0  0  0  0  0  0  0  0
   -2.2631   -0.7035    0.1465 C   0  0  2  0  0  0  0  0  0  0  0  0
   -0.0228   -0.4877   -1.0823 C   0  0  0  0  0  0  0  0  0  0  0  0
    1.2636    0.0199   -0.3568 C   0  0  2  0  0  0  0  0  0  0  0  0
    2.2273    1.0949    1.6691 C   0  0  0  0  0  0  0  0  0  0  0  0
   -2.6837   -1.8694   -0.6852 N   0  0  0  0  0  0  0  0  0  0  0  0
   -3.4334    0.0087    0.8156 C   0  0  0  0  0  0  0  0  0  0  0  0
    2.4523   -0.9983   -0.4278 C   0  0  2  0  0  0  0  0  0  0  0  0
    3.5783    0.6603    1.2127 C   0  0  0  0  0  0  0  0  0  0  0  0
    2.1072    1.9013    2.6281 O   0  0  0  0  0  0  0  0  0  0  0  0
   -2.8299   -3.1041    0.1020 C   0  0  0  0  0  0  0  0  0  0  0  0
   -3.8749   -1.6363   -1.5271 C   0  0  0  0  0  0  0  0  0  0  0  0
   -4.2042   -0.6451    1.5108 O   0  0  0  0  0  0  0  0  0  0  0  0
    3.6756   -0.4591    0.3390 C   0  0  0  0  0  0  0  0  0  0  0  0
    2.8166   -1.2238   -1.9223 C   0  0  0  0  0  0  0  0  0  0  0  0
    2.0438   -2.2140    0.1550 O   0  0  0  0  0  0  0  0  0  0  0  0
    4.7748    1.2438    1.7219 C   0  0  0  0  0  0  0  0  0  0  0  0
    4.9241   -1.1033    0.2060 C   0  0  0  0  0  0  0  0  0  0  0  0
    4.8022    2.4595    2.4069 O   0  0  0  0  0  0  0  0  0  0  0  0
    5.9989    0.6046    1.5219 C   0  0  0  0  0  0  0  0  0  0  0  0
    6.0700   -0.5772    0.7960 C   0  0  0  0  0  0  0  0  0  0  0  0
   -4.8034    1.8416   -0.1454 C   0  0  0  0  0  0  0  0  0  0  0  0
   -5.9386    2.0423    0.3672 O   0  0  0  0  0  0  0  0  0  0  0  0
   -4.6543    1.9352   -1.5635 N   0  0  0  0  0  0  0  0  0  0  0  0
   -3.8898    1.8360    1.7823 H   0  0  0  0  0  0  0  0  0  0  0  0
   -1.8846    0.4636   -1.6458 H   0  0  0  0  0  0  0  0  0  0  0  0
   -0.0496    3.2136   -0.4063 H   0  0  0  0  0  0  0  0  0  0  0  0
    0.7949   -0.4820    1.7059 H   0  0  0  0  0  0  0  0  0  0  0  0
   -1.6283   -1.0688    0.9885 H   0  0  0  0  0  0  0  0  0  0  0  0
   -0.1241   -1.5836   -0.9367 H   0  0  0  0  0  0  0  0  0  0  0  0
    0.1265   -0.3413   -2.1731 H   0  0  0  0  0  0  0  0  0  0  0  0
    1.5937    0.9364   -0.8979 H   0  0  0  0  0  0  0  0  0  0  0  0
   -3.1025   -3.9552   -0.5622 H   0  0  0  0  0  0  0  0  0  0  0  0
   -3.6125   -3.0007    0.8804 H   0  0  0  0  0  0  0  0  0  0  0  0
   -1.8636   -3.3651    0.5823 H   0  0  0  0  0  0  0  0  0  0  0  0
   -3.7654   -0.7116   -2.1299 H   0  0  0  0  0  0  0  0  0  0  0  0
   -4.7973   -1.5709   -0.9139 H   0  0  0  0  0  0  0  0  0  0  0  0
   -3.9905   -2.4788   -2.2478 H   0  0  0  0  0  0  0  0  0  0  0  0
    3.1222   -0.2687   -2.3995 H   0  0  0  0  0  0  0  0  0  0  0  0
    1.9616   -1.6508   -2.4844 H   0  0  0  0  0  0  0  0  0  0  0  0
    3.6416   -1.9513   -2.0482 H   0  0  0  0  0  0  0  0  0  0  0  0
    2.7571   -2.8878    0.0045 H   0  0  0  0  0  0  0  0  0  0  0  0
    5.0272   -2.0189   -0.3588 H   0  0  0  0  0  0  0  0  0  0  0  0
    4.0494    3.1351    2.3823 H   0  0  0  0  0  0  0  0  0  0  0  0
    6.9075    1.0326    1.9292 H   0  0  0  0  0  0  0  0  0  0  0  0
    7.0234   -1.0710    0.6593 H   0  0  0  0  0  0  0  0  0  0  0  0
   -5.4679    2.2072   -2.1578 H   0  0  0  0  0  0  0  0  0  0  0  0
   -3.7360    1.7647   -2.0272 H   0  0  0  0  0  0  0  0  0  0  0  0
  1  2  2  0
  2  3  1  0
  4  2  1  0
  5  4  1  0
  4  6  1  0
  4  7  1  6
  8  5  2  0
  5  9  1  0
 10  6  1  0
  6 11  1  0
 12  9  1  0
  9 13  1  0
 10 14  1  0
 15 10  1  0
 12 11  1  0
 16 12  1  0
 13 17  1  0
 13 18  2  0
 19 14  1  0
 14 20  1  0
  3 15  1  0
 15 21  2  0
 22 16  1  0
 16 23  1  0
 16 24  1  1
 22 17  2  0
 17 25  1  0
 26 22  1  0
 25 27  1  0
 25 28  2  0
 29 26  2  0
 28 29  1  0
  3 30  1  0
 30 31  2  0
 30 32  1  0
  3 33  1  0
  6 34  1  6
  7 35  1  0
  9 36  1  0
 10 37  1  1
 11 38  1  0
 11 39  1  0
 12 40  1  6
 19 41  1  0
 19 42  1  0
 19 43  1  0
 20 44  1  0
 20 45  1  0
 20 46  1  0
 23 47  1  0
 23 48  1  0
 23 49  1  0
 24 50  1  0
 26 51  1  0
 27 52  1  0
 28 53  1  0
 29 54  1  0
 32 55  1  0
 32 56  1  0
M  END
> <ID>
HT2027

> <Class>
0.0

> <Clusters>
225

> <Fold>
4

$$$$