
     RDKit          3D

 48 49  0  0  0  0  0  0  0  0999 V2000
    7.9831    1.3075   -0.3227 C   0  0  0  0  0  0  0  0  0  0  0  0
    7.0456    0.1777    0.1021 C   0  0  0  0  0  0  0  0  0  0  0  0
    5.6353    0.3220   -0.4890 C   0  0  0  0  0  0  0  0  0  0  0  0
    4.8597    1.4998    0.1175 C   0  0  0  0  0  0  0  0  0  0  0  0
    3.5096    1.5083   -0.3475 O   0  0  0  0  0  0  0  0  0  0  0  0
    2.4981    0.6244    0.0641 C   0  0  0  0  0  0  0  0  0  0  0  0
    1.2643    0.6813   -0.5932 C   0  0  0  0  0  0  0  0  0  0  0  0
    0.2198   -0.1715   -0.2253 C   0  0  0  0  0  0  0  0  0  0  0  0
    0.3951   -1.0980    0.8209 C   0  0  0  0  0  0  0  0  0  0  0  0
   -0.6171   -1.9803    1.2344 O   0  0  0  0  0  0  0  0  0  0  0  0
   -1.9538   -1.9975    0.7337 C   0  0  0  0  0  0  0  0  0  0  0  0
   -2.7631   -0.8335    1.3195 C   0  0  0  0  0  0  0  0  0  0  0  0
   -4.1885   -0.7883    0.7553 C   0  0  0  0  0  0  0  0  0  0  0  0
   -4.1662   -0.5483   -0.7072 N   0  0  0  0  0  0  0  0  0  0  0  0
   -5.2771   -1.2184   -1.4121 C   0  0  0  0  0  0  0  0  0  0  0  0
   -6.5941   -0.4525   -1.2313 C   0  0  0  0  0  0  0  0  0  0  0  0
   -6.4642    0.8689   -1.7136 O   0  0  0  0  0  0  0  0  0  0  0  0
   -5.4991    1.5601   -0.9468 C   0  0  0  0  0  0  0  0  0  0  0  0
   -4.1162    0.8891   -1.0547 C   0  0  0  0  0  0  0  0  0  0  0  0
    1.6285   -1.1537    1.4791 C   0  0  0  0  0  0  0  0  0  0  0  0
    2.6731   -0.3010    1.1107 C   0  0  0  0  0  0  0  0  0  0  0  0
    9.0104    1.0891    0.0377 H   0  0  0  0  0  0  0  0  0  0  0  0
    8.0085    1.3963   -1.4296 H   0  0  0  0  0  0  0  0  0  0  0  0
    7.6603    2.2728    0.1193 H   0  0  0  0  0  0  0  0  0  0  0  0
    7.4772   -0.7841   -0.2504 H   0  0  0  0  0  0  0  0  0  0  0  0
    6.9918    0.1350    1.2117 H   0  0  0  0  0  0  0  0  0  0  0  0
    5.6966    0.4465   -1.5922 H   0  0  0  0  0  0  0  0  0  0  0  0
    5.0845   -0.6220   -0.2948 H   0  0  0  0  0  0  0  0  0  0  0  0
    5.3333    2.4484   -0.2097 H   0  0  0  0  0  0  0  0  0  0  0  0
    4.8872    1.4808    1.2280 H   0  0  0  0  0  0  0  0  0  0  0  0
    1.1151    1.3901   -1.3980 H   0  0  0  0  0  0  0  0  0  0  0  0
   -0.7152   -0.0983   -0.7624 H   0  0  0  0  0  0  0  0  0  0  0  0
   -1.9492   -1.9798   -0.3769 H   0  0  0  0  0  0  0  0  0  0  0  0
   -2.4274   -2.9527    1.0450 H   0  0  0  0  0  0  0  0  0  0  0  0
   -2.8193   -0.9589    2.4226 H   0  0  0  0  0  0  0  0  0  0  0  0
   -2.2492    0.1297    1.1253 H   0  0  0  0  0  0  0  0  0  0  0  0
   -4.7636   -0.0020    1.2892 H   0  0  0  0  0  0  0  0  0  0  0  0
   -4.6783   -1.7572    1.0009 H   0  0  0  0  0  0  0  0  0  0  0  0
   -5.3948   -2.2693   -1.0683 H   0  0  0  0  0  0  0  0  0  0  0  0
   -5.0367   -1.2675   -2.4967 H   0  0  0  0  0  0  0  0  0  0  0  0
   -7.3853   -0.9644   -1.8184 H   0  0  0  0  0  0  0  0  0  0  0  0
   -6.9183   -0.4632   -0.1659 H   0  0  0  0  0  0  0  0  0  0  0  0
   -5.4169    2.5948   -1.3412 H   0  0  0  0  0  0  0  0  0  0  0  0
   -5.8258    1.6512    0.1125 H   0  0  0  0  0  0  0  0  0  0  0  0
   -3.7513    0.9899   -2.1000 H   0  0  0  0  0  0  0  0  0  0  0  0
   -3.3910    1.4310   -0.4110 H   0  0  0  0  0  0  0  0  0  0  0  0
    1.7772   -1.8613    2.2850 H   0  0  0  0  0  0  0  0  0  0  0  0
    3.6074   -0.3709    1.6491 H   0  0  0  0  0  0  0  0  0  0  0  0
  1  2  1  0
  2  3  1  0
  3  4  1  0
  4  5  1  0
  5  6  1  0
  6  7  2  0
  7  8  1  0
  8  9  2  0
  9 10  1  0
 10 11  1  0
 11 12  1  0
 12 13  1  0
 13 14  1  0
 14 15  1  0
 15 16  1  0
 16 17  1  0
 17 18  1  0
 18 19  1  0
 19 14  1  0
  9 20  1  0
 20 21  2  0
 21  6  1  0
  1 22  1  0
  1 23  1  0
  1 24  1  0
  2 25  1  0
  2 26  1  0
  3 27  1  0
  3 28  1  0
  4 29  1  0
  4 30  1  0
  7 31  1  0
  8 32  1  0
 11 33  1  0
 11 34  1  0
 12 35  1  0
 12 36  1  0
 13 37  1  0
 13 38  1  0
 15 39  1  0
 15 40  1  0
 16 41  1  0
 16 42  1  0
 18 43  1  0
 18 44  1  0
 19 45  1  0
 19 46  1  0
 20 47  1  0
 21 48  1  0
M  END
> <ID>
HT3317

> <Class>
0.0

> <Clusters>
91

> <Fold>
4

$$$$