
     RDKit          3D

 24 24  0  0  0  0  0  0  0  0999 V2000
    3.1598    0.2358   -0.0601 C   0  0  0  0  0  0  0  0  0  0  0  0
    1.9841   -0.2283   -0.6872 O   0  0  0  0  0  0  0  0  0  0  0  0
    0.9602   -0.4235    0.2733 C   0  0  0  0  0  0  0  0  0  0  0  0
    0.4693    0.8329    0.7381 O   0  0  0  0  0  0  0  0  0  0  0  0
   -0.4667    1.3886   -0.1681 C   0  0  0  0  0  0  0  0  0  0  0  0
   -0.6902    2.7333    0.1613 O   0  0  0  0  0  0  0  0  0  0  0  0
   -1.7963    0.5952   -0.1099 C   0  0  0  0  0  0  0  0  0  0  0  0
   -2.6425    1.1116    0.8876 O   0  0  0  0  0  0  0  0  0  0  0  0
   -1.5277   -0.8991    0.1933 C   0  0  0  0  0  0  0  0  0  0  0  0
   -2.5526   -1.7098   -0.3268 O   0  0  0  0  0  0  0  0  0  0  0  0
   -0.1497   -1.3282   -0.3400 C   0  0  0  0  0  0  0  0  0  0  0  0
    0.0815   -2.6757   -0.0196 O   0  0  0  0  0  0  0  0  0  0  0  0
    3.9240    0.4269   -0.8411 H   0  0  0  0  0  0  0  0  0  0  0  0
    3.5728   -0.5307    0.6321 H   0  0  0  0  0  0  0  0  0  0  0  0
    2.9851    1.1934    0.4783 H   0  0  0  0  0  0  0  0  0  0  0  0
    1.3552   -0.9662    1.1650 H   0  0  0  0  0  0  0  0  0  0  0  0
   -0.0705    1.3511   -1.2130 H   0  0  0  0  0  0  0  0  0  0  0  0
    0.1723    3.2039    0.0187 H   0  0  0  0  0  0  0  0  0  0  0  0
   -2.2897    0.6827   -1.1077 H   0  0  0  0  0  0  0  0  0  0  0  0
   -3.1482    1.8633    0.4811 H   0  0  0  0  0  0  0  0  0  0  0  0
   -1.5150   -1.0417    1.2977 H   0  0  0  0  0  0  0  0  0  0  0  0
   -2.5190   -1.6415   -1.3169 H   0  0  0  0  0  0  0  0  0  0  0  0
   -0.1579   -1.2084   -1.4499 H   0  0  0  0  0  0  0  0  0  0  0  0
    0.8621   -2.9655   -0.5604 H   0  0  0  0  0  0  0  0  0  0  0  0
  1  2  1  0
  2  3  1  0
  3  4  1  0
  4  5  1  0
  5  6  1  0
  5  7  1  0
  7  8  1  0
  7  9  1  0
  9 10  1  0
  9 11  1  0
 11  3  1  0
 11 12  1  0
  1 13  1  0
  1 14  1  0
  1 15  1  0
  3 16  1  0
  5 17  1  0
  6 18  1  0
  7 19  1  0
  8 20  1  0
  9 21  1  0
 10 22  1  0
 11 23  1  0
 12 24  1  0
M  END
> <ID>
HT2772

> <Class>
0.0

> <Clusters>
70

> <Fold>
4

$$$$