
     RDKit          3D

 57 59  0  0  0  0  0  0  0  0999 V2000
   -2.4191   -2.2193   -1.8841 C   0  0  0  0  0  0  0  0  0  0  0  0
   -3.3973   -1.1715   -1.2915 C   0  0  0  0  0  0  0  0  0  0  0  0
   -3.5349    0.0039   -2.2971 C   0  0  0  0  0  0  0  0  0  0  0  0
   -3.1243   -0.7844    0.1640 N   0  0  0  0  0  0  0  0  0  0  0  0
   -3.5594   -1.9390    1.0138 C   0  0  0  0  0  0  0  0  0  0  0  0
   -1.6512   -0.6164    0.4500 C   0  0  0  0  0  0  0  0  0  0  0  0
   -0.9308    0.5409   -0.2677 C   0  0  0  0  0  0  0  0  0  0  0  0
    0.3168    0.7801    0.3837 O   0  0  0  0  0  0  0  0  0  0  0  0
    1.5677    0.6126   -0.2217 C   0  0  0  0  0  0  0  0  0  0  0  0
    1.6629    0.2556   -1.4288 O   0  0  0  0  0  0  0  0  0  0  0  0
    2.8094    0.8226    0.5985 C   0  0  0  0  0  0  0  0  0  0  0  0
    3.7060    1.8439   -0.0731 C   0  0  0  0  0  0  0  0  0  0  0  0
    3.2732    3.1754   -0.2050 C   0  0  0  0  0  0  0  0  0  0  0  0
    4.0733    4.1173   -0.8576 C   0  0  0  0  0  0  0  0  0  0  0  0
    5.3105    3.7400   -1.3845 C   0  0  0  0  0  0  0  0  0  0  0  0
    5.7537    2.4216   -1.2533 C   0  0  0  0  0  0  0  0  0  0  0  0
    4.9618    1.4744   -0.5945 C   0  0  0  0  0  0  0  0  0  0  0  0
    5.4372    0.1701   -0.4494 O   0  0  0  0  0  0  0  0  0  0  0  0
    4.7473   -0.7973    0.2831 C   0  0  0  0  0  0  0  0  0  0  0  0
    5.3298   -2.0553    0.4737 C   0  0  0  0  0  0  0  0  0  0  0  0
    4.6697   -3.0294    1.2270 C   0  0  0  0  0  0  0  0  0  0  0  0
    3.4240   -2.7501    1.7932 C   0  0  0  0  0  0  0  0  0  0  0  0
    2.8322   -1.4987    1.6015 C   0  0  0  0  0  0  0  0  0  0  0  0
    3.4842   -0.5127    0.8391 C   0  0  0  0  0  0  0  0  0  0  0  0
   -3.9185    0.4518    0.5792 C   0  0  0  0  0  0  0  0  0  0  0  0
   -3.5472    1.0489    1.9639 C   0  0  0  0  0  0  0  0  0  0  0  0
   -5.4565    0.2534    0.5473 C   0  0  0  0  0  0  0  0  0  0  0  0
   -2.3075   -3.1061   -1.2316 H   0  0  0  0  0  0  0  0  0  0  0  0
   -2.8118   -2.5925   -2.8544 H   0  0  0  0  0  0  0  0  0  0  0  0
   -1.4196   -1.7837   -2.0832 H   0  0  0  0  0  0  0  0  0  0  0  0
   -4.3873   -1.6781   -1.3494 H   0  0  0  0  0  0  0  0  0  0  0  0
   -2.6902    0.7115   -2.2619 H   0  0  0  0  0  0  0  0  0  0  0  0
   -3.6003   -0.3834   -3.3366 H   0  0  0  0  0  0  0  0  0  0  0  0
   -4.4747    0.5685   -2.1329 H   0  0  0  0  0  0  0  0  0  0  0  0
   -3.4765   -1.7203    2.0970 H   0  0  0  0  0  0  0  0  0  0  0  0
   -4.6080   -2.2447    0.8101 H   0  0  0  0  0  0  0  0  0  0  0  0
   -2.9329   -2.8402    0.8489 H   0  0  0  0  0  0  0  0  0  0  0  0
   -1.4815   -0.4975    1.5433 H   0  0  0  0  0  0  0  0  0  0  0  0
   -1.0872   -1.5467    0.2204 H   0  0  0  0  0  0  0  0  0  0  0  0
   -0.7655    0.2810   -1.3305 H   0  0  0  0  0  0  0  0  0  0  0  0
   -1.5123    1.4804   -0.2263 H   0  0  0  0  0  0  0  0  0  0  0  0
    2.5230    1.2349    1.5915 H   0  0  0  0  0  0  0  0  0  0  0  0
    2.3119    3.4792    0.1909 H   0  0  0  0  0  0  0  0  0  0  0  0
    3.7319    5.1394   -0.9585 H   0  0  0  0  0  0  0  0  0  0  0  0
    5.9278    4.4703   -1.8915 H   0  0  0  0  0  0  0  0  0  0  0  0
    6.7172    2.1364   -1.6561 H   0  0  0  0  0  0  0  0  0  0  0  0
    6.2988   -2.2744    0.0436 H   0  0  0  0  0  0  0  0  0  0  0  0
    5.1254   -3.9999    1.3744 H   0  0  0  0  0  0  0  0  0  0  0  0
    2.9144   -3.5052    2.3775 H   0  0  0  0  0  0  0  0  0  0  0  0
    1.8610   -1.2992    2.0377 H   0  0  0  0  0  0  0  0  0  0  0  0
   -3.7125    1.2822   -0.1244 H   0  0  0  0  0  0  0  0  0  0  0  0
   -2.5093    1.4372    1.9830 H   0  0  0  0  0  0  0  0  0  0  0  0
   -4.1962    1.9247    2.1803 H   0  0  0  0  0  0  0  0  0  0  0  0
   -3.6896    0.3274    2.7914 H   0  0  0  0  0  0  0  0  0  0  0  0
   -5.9625    1.2405    0.6148 H   0  0  0  0  0  0  0  0  0  0  0  0
   -5.8059   -0.2246   -0.3871 H   0  0  0  0  0  0  0  0  0  0  0  0
   -5.8006   -0.3555    1.4099 H   0  0  0  0  0  0  0  0  0  0  0  0
  1  2  1  0
  2  3  1  0
  2  4  1  0
  4  5  1  0
  4  6  1  0
  6  7  1  0
  7  8  1  0
  8  9  1  0
  9 10  2  0
  9 11  1  0
 11 12  1  0
 12 13  2  0
 13 14  1  0
 14 15  2  0
 15 16  1  0
 16 17  2  0
 17 12  1  0
 17 18  1  0
 18 19  1  0
 19 20  2  0
 20 21  1  0
 21 22  2  0
 22 23  1  0
 23 24  2  0
 24 11  1  0
 24 19  1  0
  4 25  1  0
 25 26  1  0
 25 27  1  0
  1 28  1  0
  1 29  1  0
  1 30  1  0
  2 31  1  0
  3 32  1  0
  3 33  1  0
  3 34  1  0
  5 35  1  0
  5 36  1  0
  5 37  1  0
  6 38  1  0
  6 39  1  0
  7 40  1  0
  7 41  1  0
 11 42  1  0
 13 43  1  0
 14 44  1  0
 15 45  1  0
 16 46  1  0
 20 47  1  0
 21 48  1  0
 22 49  1  0
 23 50  1  0
 25 51  1  0
 26 52  1  0
 26 53  1  0
 26 54  1  0
 27 55  1  0
 27 56  1  0
 27 57  1  0
M  CHG  1   4   1
M  END
> <ID>
HT1758

> <Class>
0.0

> <Clusters>
165

> <Fold>
4

$$$$