
     RDKit          3D

 10  9  0  0  0  0  0  0  0  0999 V2000
   -1.4517   -0.1301    0.2548 C   0  0  0  0  0  0  0  0  0  0  0  0
   -0.1208    0.0294   -0.4114 C   0  0  0  0  0  0  0  0  0  0  0  0
   -0.0668    0.1497   -1.6646 O   0  0  0  0  0  0  0  0  0  0  0  0
    1.1216    0.0467    0.3822 C   0  0  0  0  0  0  0  0  0  0  0  0
    1.0708   -0.0733    1.6349 O   0  0  0  0  0  0  0  0  0  0  0  0
    2.3625    0.1949   -0.2333 O   0  0  0  0  0  0  0  0  0  0  0  0
   -1.4831   -1.0952    0.8026 H   0  0  0  0  0  0  0  0  0  0  0  0
   -1.6150    0.7034    0.9697 H   0  0  0  0  0  0  0  0  0  0  0  0
   -2.2689   -0.1201   -0.4977 H   0  0  0  0  0  0  0  0  0  0  0  0
    2.4514    0.2947   -1.2373 H   0  0  0  0  0  0  0  0  0  0  0  0
  1  2  1  0
  2  3  2  0
  2  4  1  0
  4  5  2  0
  4  6  1  0
  1  7  1  0
  1  8  1  0
  1  9  1  0
  6 10  1  0
M  END
> <ID>
HT1782

> <Class>
0.0

> <Clusters>
80

> <Fold>
4

$$$$