
     RDKit          3D

 49 52  0  0  0  0  0  0  0  0999 V2000
   -6.7726    2.7872   -1.5306 C   0  0  0  0  0  0  0  0  0  0  0  0
   -5.4261    2.4583   -0.9804 C   0  0  0  0  0  0  0  0  0  0  0  0
   -4.5595    3.3669   -0.8638 O   0  0  0  0  0  0  0  0  0  0  0  0
   -5.1680    1.1509   -0.5490 O   0  0  0  0  0  0  0  0  0  0  0  0
   -3.8986    0.6255   -0.2643 C   0  0  0  0  0  0  0  0  0  0  0  0
   -2.7363    1.0736   -0.9133 C   0  0  0  0  0  0  0  0  0  0  0  0
   -1.4944    0.5142   -0.6027 C   0  0  0  0  0  0  0  0  0  0  0  0
   -1.3779   -0.4947    0.3755 C   0  0  0  0  0  0  0  0  0  0  0  0
   -2.5604   -0.9753    0.9781 C   0  0  0  0  0  0  0  0  0  0  0  0
   -3.8010   -0.4143    0.6640 C   0  0  0  0  0  0  0  0  0  0  0  0
   -0.0118   -1.1336    0.6582 C   0  0  0  0  0  0  0  0  0  0  0  0
    0.0321   -1.8980    1.9666 C   0  0  0  0  0  0  0  0  0  0  0  0
   -0.1007   -1.3700    3.1031 O   0  0  0  0  0  0  0  0  0  0  0  0
    0.2355   -3.2953    1.7924 N   0  0  0  0  0  0  0  0  0  0  0  0
    0.3206   -3.4794    0.3935 C   0  0  0  0  0  0  0  0  0  0  0  0
    0.5054   -4.6936   -0.2662 C   0  0  0  0  0  0  0  0  0  0  0  0
    0.5540   -4.6888   -1.6692 C   0  0  0  0  0  0  0  0  0  0  0  0
    0.4156   -3.4817   -2.3813 C   0  0  0  0  0  0  0  0  0  0  0  0
    0.2281   -2.2706   -1.6957 C   0  0  0  0  0  0  0  0  0  0  0  0
    0.1872   -2.2903   -0.2966 C   0  0  0  0  0  0  0  0  0  0  0  0
    1.1393   -0.1191    0.6613 C   0  0  0  0  0  0  0  0  0  0  0  0
    2.3873   -0.3916    0.0601 C   0  0  0  0  0  0  0  0  0  0  0  0
    3.4281    0.5395    0.1197 C   0  0  0  0  0  0  0  0  0  0  0  0
    3.2599    1.7515    0.8102 C   0  0  0  0  0  0  0  0  0  0  0  0
    4.2716    2.7207    0.8848 O   0  0  0  0  0  0  0  0  0  0  0  0
    5.6476    2.4606    0.8460 C   0  0  0  0  0  0  0  0  0  0  0  0
    6.0984    1.3056    1.0747 O   0  0  0  0  0  0  0  0  0  0  0  0
    6.5973    3.5924    0.6480 C   0  0  0  0  0  0  0  0  0  0  0  0
    2.0318    2.0232    1.4183 C   0  0  0  0  0  0  0  0  0  0  0  0
    0.9901    1.0945    1.3624 C   0  0  0  0  0  0  0  0  0  0  0  0
   -6.8314    3.8608   -1.8099 H   0  0  0  0  0  0  0  0  0  0  0  0
   -6.9642    2.1687   -2.4318 H   0  0  0  0  0  0  0  0  0  0  0  0
   -7.5477    2.5693   -0.7668 H   0  0  0  0  0  0  0  0  0  0  0  0
   -2.7872    1.8276   -1.6865 H   0  0  0  0  0  0  0  0  0  0  0  0
   -0.6210    0.8659   -1.1371 H   0  0  0  0  0  0  0  0  0  0  0  0
   -2.5356   -1.7913    1.6876 H   0  0  0  0  0  0  0  0  0  0  0  0
   -4.6942   -0.7910    1.1464 H   0  0  0  0  0  0  0  0  0  0  0  0
    0.2944   -4.0262    2.5357 H   0  0  0  0  0  0  0  0  0  0  0  0
    0.6073   -5.6173    0.2884 H   0  0  0  0  0  0  0  0  0  0  0  0
    0.6970   -5.6176   -2.2060 H   0  0  0  0  0  0  0  0  0  0  0  0
    0.4537   -3.4872   -3.4628 H   0  0  0  0  0  0  0  0  0  0  0  0
    0.1249   -1.3423   -2.2414 H   0  0  0  0  0  0  0  0  0  0  0  0
    2.5706   -1.3217   -0.4596 H   0  0  0  0  0  0  0  0  0  0  0  0
    4.3530    0.3165   -0.3939 H   0  0  0  0  0  0  0  0  0  0  0  0
    7.5028    3.2421    0.1089 H   0  0  0  0  0  0  0  0  0  0  0  0
    6.8939    4.0035    1.6352 H   0  0  0  0  0  0  0  0  0  0  0  0
    6.1122    4.3924    0.0504 H   0  0  0  0  0  0  0  0  0  0  0  0
    1.8883    2.9547    1.9511 H   0  0  0  0  0  0  0  0  0  0  0  0
    0.0606    1.3250    1.8679 H   0  0  0  0  0  0  0  0  0  0  0  0
  1  2  1  0
  2  3  2  0
  2  4  1  0
  4  5  1  0
  5  6  2  0
  6  7  1  0
  7  8  2  0
  8  9  1  0
  9 10  2  0
 10  5  1  0
  8 11  1  0
 11 12  1  0
 12 13  2  0
 12 14  1  0
 14 15  1  0
 15 16  2  0
 16 17  1  0
 17 18  2  0
 18 19  1  0
 19 20  2  0
 20 11  1  0
 20 15  1  0
 11 21  1  0
 21 22  2  0
 22 23  1  0
 23 24  2  0
 24 25  1  0
 25 26  1  0
 26 27  2  0
 26 28  1  0
 24 29  1  0
 29 30  2  0
 30 21  1  0
  1 31  1  0
  1 32  1  0
  1 33  1  0
  6 34  1  0
  7 35  1  0
  9 36  1  0
 10 37  1  0
 14 38  1  0
 16 39  1  0
 17 40  1  0
 18 41  1  0
 19 42  1  0
 22 43  1  0
 23 44  1  0
 28 45  1  0
 28 46  1  0
 28 47  1  0
 29 48  1  0
 30 49  1  0
M  END
> <ID>
HT3760

> <Class>
0.0

> <Clusters>
273

> <Fold>
4

$$$$