
     RDKit          3D

 46 49  0  0  0  0  0  0  0  0999 V2000
    2.6761   -1.4151    1.0607 C   0  0  0  0  0  0  0  0  0  0  0  0
    2.3148   -0.8592   -0.3408 C   0  0  0  0  0  0  0  0  0  0  0  0
    1.3740   -1.8361   -1.0713 C   0  0  0  0  0  0  0  0  0  0  0  0
   -0.0200   -1.8914   -0.4369 C   0  0  0  0  0  0  0  0  0  0  0  0
   -0.6866   -0.4912   -0.3929 C   0  0  0  0  0  0  0  0  0  0  0  0
    0.2394    0.5290    0.3603 C   0  0  0  0  0  0  0  0  0  0  0  0
   -0.4063    1.9371    0.3722 C   0  0  0  0  0  0  0  0  0  0  0  0
   -1.8054    1.9204    0.9801 C   0  0  0  0  0  0  0  0  0  0  0  0
   -2.6619    0.9297    0.2434 C   0  0  0  0  0  0  0  0  0  0  0  0
   -3.8012    1.3454   -0.3338 C   0  0  0  0  0  0  0  0  0  0  0  0
   -4.6178    0.4310   -1.1285 C   0  0  0  0  0  0  0  0  0  0  0  0
   -5.6937    0.8288   -1.6476 O   0  0  0  0  0  0  0  0  0  0  0  0
   -4.1697   -0.9431   -1.3280 C   0  0  0  0  0  0  0  0  0  0  0  0
   -3.0424   -1.3777   -0.7640 C   0  0  0  0  0  0  0  0  0  0  0  0
   -2.1659   -0.5208    0.1558 C   0  0  0  0  0  0  0  0  0  0  0  0
   -2.2570   -1.1514    1.5653 C   0  0  0  0  0  0  0  0  0  0  0  0
    1.6564    0.5553   -0.3065 C   0  0  0  0  0  0  0  0  0  0  0  0
    2.6395    1.5688    0.3254 C   0  0  0  0  0  0  0  0  0  0  0  0
    4.0051    1.6010   -0.3882 C   0  0  0  0  0  0  0  0  0  0  0  0
    4.4013    0.3000   -1.0310 C   0  0  0  0  0  0  0  0  0  0  0  0
    5.5304    0.2070   -1.5795 O   0  0  0  0  0  0  0  0  0  0  0  0
    3.5268   -0.7888   -1.0912 O   0  0  0  0  0  0  0  0  0  0  0  0
    3.0514   -2.4568    0.9704 H   0  0  0  0  0  0  0  0  0  0  0  0
    1.8145   -1.4242    1.7553 H   0  0  0  0  0  0  0  0  0  0  0  0
    3.4910   -0.8234    1.5256 H   0  0  0  0  0  0  0  0  0  0  0  0
    1.8138   -2.8577   -1.0765 H   0  0  0  0  0  0  0  0  0  0  0  0
    1.2724   -1.5241   -2.1348 H   0  0  0  0  0  0  0  0  0  0  0  0
    0.0542   -2.3258    0.5805 H   0  0  0  0  0  0  0  0  0  0  0  0
   -0.6192   -2.5909   -1.0520 H   0  0  0  0  0  0  0  0  0  0  0  0
   -0.7555   -0.1409   -1.4495 H   0  0  0  0  0  0  0  0  0  0  0  0
    0.3534    0.2165    1.4179 H   0  0  0  0  0  0  0  0  0  0  0  0
   -0.4548    2.3439   -0.6624 H   0  0  0  0  0  0  0  0  0  0  0  0
    0.1924    2.6323    0.9946 H   0  0  0  0  0  0  0  0  0  0  0  0
   -1.7473    1.6417    2.0534 H   0  0  0  0  0  0  0  0  0  0  0  0
   -2.2268    2.9490    0.9334 H   0  0  0  0  0  0  0  0  0  0  0  0
   -4.1224    2.3765   -0.2434 H   0  0  0  0  0  0  0  0  0  0  0  0
   -4.7641   -1.6182   -1.9314 H   0  0  0  0  0  0  0  0  0  0  0  0
   -2.7974   -2.4214   -0.9059 H   0  0  0  0  0  0  0  0  0  0  0  0
   -1.5510   -0.6840    2.2797 H   0  0  0  0  0  0  0  0  0  0  0  0
   -2.0419   -2.2406    1.5362 H   0  0  0  0  0  0  0  0  0  0  0  0
   -3.2846   -1.0295    1.9721 H   0  0  0  0  0  0  0  0  0  0  0  0
    1.5106    0.8811   -1.3628 H   0  0  0  0  0  0  0  0  0  0  0  0
    2.2318    2.5974    0.2607 H   0  0  0  0  0  0  0  0  0  0  0  0
    2.7774    1.3469    1.4048 H   0  0  0  0  0  0  0  0  0  0  0  0
    3.9793    2.3760   -1.1850 H   0  0  0  0  0  0  0  0  0  0  0  0
    4.7867    1.8977    0.3439 H   0  0  0  0  0  0  0  0  0  0  0  0
  1  2  1  0
  2  3  1  0
  3  4  1  0
  4  5  1  0
  5  6  1  0
  6  7  1  0
  7  8  1  0
  8  9  1  0
  9 10  2  0
 10 11  1  0
 11 12  2  0
 11 13  1  0
 13 14  2  0
 14 15  1  0
 15  5  1  0
 15  9  1  0
 15 16  1  0
  6 17  1  0
 17  2  1  0
 17 18  1  0
 18 19  1  0
 19 20  1  0
 20 21  2  0
 20 22  1  0
 22  2  1  0
  1 23  1  0
  1 24  1  0
  1 25  1  0
  3 26  1  0
  3 27  1  0
  4 28  1  0
  4 29  1  0
  5 30  1  0
  6 31  1  0
  7 32  1  0
  7 33  1  0
  8 34  1  0
  8 35  1  0
 10 36  1  0
 13 37  1  0
 14 38  1  0
 16 39  1  0
 16 40  1  0
 16 41  1  0
 17 42  1  0
 18 43  1  0
 18 44  1  0
 19 45  1  0
 19 46  1  0
M  END
> <ID>
HT2016

> <Class>
0.0

> <Clusters>
202

> <Fold>
4

$$$$