
     RDKit          3D

 42 42  0  0  0  0  0  0  0  0999 V2000
   -4.8438    0.6484    0.8669 C   0  0  0  0  0  0  0  0  0  0  0  0
   -4.2286   -0.6873    1.3114 C   0  0  0  0  0  0  0  0  0  0  0  0
   -3.8805   -0.6879    2.8059 C   0  0  0  0  0  0  0  0  0  0  0  0
   -3.0745   -1.0953    0.4836 N   0  0  0  0  0  0  0  0  0  0  0  0
   -1.9520   -0.1341    0.4291 C   0  0  0  0  0  0  0  0  0  0  0  0
   -1.8680    0.6013   -0.9263 C   0  0  0  0  0  0  0  0  0  0  0  0
   -1.5049   -0.3053   -1.9371 O   0  0  0  0  0  0  0  0  0  0  0  0
   -0.8459    1.7494   -0.8698 C   0  0  0  0  0  0  0  0  0  0  0  0
    0.4406    1.2959   -0.4410 O   0  0  0  0  0  0  0  0  0  0  0  0
    1.3819    0.6073   -1.2254 C   0  0  0  0  0  0  0  0  0  0  0  0
    1.2901    0.5359   -2.6300 C   0  0  0  0  0  0  0  0  0  0  0  0
    2.2538   -0.1569   -3.3654 C   0  0  0  0  0  0  0  0  0  0  0  0
    3.3171   -0.7801   -2.7135 C   0  0  0  0  0  0  0  0  0  0  0  0
    3.4238   -0.7105   -1.3234 C   0  0  0  0  0  0  0  0  0  0  0  0
    2.4594   -0.0123   -0.5695 C   0  0  0  0  0  0  0  0  0  0  0  0
    2.5261    0.0832    0.8313 O   0  0  0  0  0  0  0  0  0  0  0  0
    3.5856   -0.4159    1.6463 C   0  0  0  0  0  0  0  0  0  0  0  0
    4.8117    0.4394    1.4884 C   0  0  0  0  0  0  0  0  0  0  0  0
    6.0055   -0.0830    1.1946 C   0  0  0  0  0  0  0  0  0  0  0  0
   -4.1533    1.4974    1.0512 H   0  0  0  0  0  0  0  0  0  0  0  0
   -5.7818    0.8365    1.4315 H   0  0  0  0  0  0  0  0  0  0  0  0
   -5.0952    0.6095   -0.2140 H   0  0  0  0  0  0  0  0  0  0  0  0
   -5.0180   -1.4610    1.1780 H   0  0  0  0  0  0  0  0  0  0  0  0
   -3.2217    0.1622    3.0770 H   0  0  0  0  0  0  0  0  0  0  0  0
   -3.3733   -1.6384    3.0763 H   0  0  0  0  0  0  0  0  0  0  0  0
   -4.8105   -0.6063    3.4082 H   0  0  0  0  0  0  0  0  0  0  0  0
   -3.4129   -1.3438   -0.4752 H   0  0  0  0  0  0  0  0  0  0  0  0
   -2.0020    0.6085    1.2518 H   0  0  0  0  0  0  0  0  0  0  0  0
   -1.0101   -0.7025    0.5851 H   0  0  0  0  0  0  0  0  0  0  0  0
   -2.8581    1.0633   -1.1504 H   0  0  0  0  0  0  0  0  0  0  0  0
   -2.3210   -0.5098   -2.4639 H   0  0  0  0  0  0  0  0  0  0  0  0
   -0.7826    2.2790   -1.8428 H   0  0  0  0  0  0  0  0  0  0  0  0
   -1.2053    2.4994   -0.1330 H   0  0  0  0  0  0  0  0  0  0  0  0
    0.4852    1.0145   -3.1678 H   0  0  0  0  0  0  0  0  0  0  0  0
    2.1765   -0.2093   -4.4438 H   0  0  0  0  0  0  0  0  0  0  0  0
    4.0614   -1.3178   -3.2868 H   0  0  0  0  0  0  0  0  0  0  0  0
    4.2569   -1.2066   -0.8478 H   0  0  0  0  0  0  0  0  0  0  0  0
    3.2632   -0.3560    2.7063 H   0  0  0  0  0  0  0  0  0  0  0  0
    3.7783   -1.4873    1.4201 H   0  0  0  0  0  0  0  0  0  0  0  0
    4.7246    1.5115    1.6373 H   0  0  0  0  0  0  0  0  0  0  0  0
    6.8707    0.5644    1.0963 H   0  0  0  0  0  0  0  0  0  0  0  0
    6.1316   -1.1516    1.0504 H   0  0  0  0  0  0  0  0  0  0  0  0
  1  2  1  0
  2  3  1  0
  2  4  1  0
  4  5  1  0
  5  6  1  0
  6  7  1  0
  6  8  1  0
  8  9  1  0
  9 10  1  0
 10 11  2  0
 11 12  1  0
 12 13  2  0
 13 14  1  0
 14 15  2  0
 15 10  1  0
 15 16  1  0
 16 17  1  0
 17 18  1  0
 18 19  2  3
  1 20  1  0
  1 21  1  0
  1 22  1  0
  2 23  1  0
  3 24  1  0
  3 25  1  0
  3 26  1  0
  4 27  1  0
  5 28  1  0
  5 29  1  0
  6 30  1  0
  7 31  1  0
  8 32  1  0
  8 33  1  0
 11 34  1  0
 12 35  1  0
 13 36  1  0
 14 37  1  0
 17 38  1  0
 17 39  1  0
 18 40  1  0
 19 41  1  0
 19 42  1  0
M  END
> <ID>
HT1561

> <Class>
0.0

> <Clusters>
11

> <Fold>
4

$$$$