
     RDKit          3D

 39 39  0  0  0  0  0  0  0  0999 V2000
    0.6086    0.3321    3.5069 C   0  0  0  0  0  0  0  0  0  0  0  0
    0.5345   -0.2428    2.2086 O   0  0  0  0  0  0  0  0  0  0  0  0
    0.1802    0.4969    1.0771 C   0  0  0  0  0  0  0  0  0  0  0  0
   -0.1020    1.7231    1.1760 O   0  0  0  0  0  0  0  0  0  0  0  0
    0.1913   -0.1709   -0.2700 C   0  0  0  0  0  0  0  0  0  0  0  0
    1.4809    0.1640   -1.0396 C   0  0  0  0  0  0  0  0  0  0  0  0
    2.7096   -0.3611   -0.3374 C   0  0  0  0  0  0  0  0  0  0  0  0
    3.6163    0.5247    0.2703 C   0  0  0  0  0  0  0  0  0  0  0  0
    4.7485    0.0330    0.9274 C   0  0  0  0  0  0  0  0  0  0  0  0
    4.9859   -1.3431    0.9800 C   0  0  0  0  0  0  0  0  0  0  0  0
    4.0921   -2.2304    0.3743 C   0  0  0  0  0  0  0  0  0  0  0  0
    2.9583   -1.7434   -0.2833 C   0  0  0  0  0  0  0  0  0  0  0  0
   -0.9737    0.2634   -1.0467 N   0  0  0  0  0  0  0  0  0  0  0  0
   -2.0680   -0.6082   -1.3757 C   0  0  0  0  0  0  0  0  0  0  0  0
   -2.0010   -1.8397   -1.1126 O   0  0  0  0  0  0  0  0  0  0  0  0
   -3.3112   -0.0672   -2.0380 C   0  0  0  0  0  0  0  0  0  0  0  0
   -2.9801    0.4264   -3.3759 N   0  0  0  0  0  0  0  0  0  0  0  0
   -3.9823    1.0347   -1.1891 C   0  0  0  0  0  0  0  0  0  0  0  0
   -4.3769    0.5314    0.1671 C   0  0  0  0  0  0  0  0  0  0  0  0
   -5.2442   -0.3765    0.2781 O   0  0  0  0  0  0  0  0  0  0  0  0
   -3.7877    1.0737    1.3050 O   0  0  0  0  0  0  0  0  0  0  0  0
    0.8970   -0.4518    4.2372 H   0  0  0  0  0  0  0  0  0  0  0  0
    1.3727    1.1380    3.5220 H   0  0  0  0  0  0  0  0  0  0  0  0
   -0.3804    0.7465    3.7959 H   0  0  0  0  0  0  0  0  0  0  0  0
    0.1513   -1.2704   -0.1077 H   0  0  0  0  0  0  0  0  0  0  0  0
    1.5511    1.2664   -1.1770 H   0  0  0  0  0  0  0  0  0  0  0  0
    1.4323   -0.2851   -2.0557 H   0  0  0  0  0  0  0  0  0  0  0  0
    3.4432    1.5934    0.2437 H   0  0  0  0  0  0  0  0  0  0  0  0
    5.4415    0.7189    1.3967 H   0  0  0  0  0  0  0  0  0  0  0  0
    5.8629   -1.7216    1.4894 H   0  0  0  0  0  0  0  0  0  0  0  0
    4.2774   -3.2961    0.4148 H   0  0  0  0  0  0  0  0  0  0  0  0
    2.2747   -2.4420   -0.7496 H   0  0  0  0  0  0  0  0  0  0  0  0
   -1.0254    1.2671   -1.3331 H   0  0  0  0  0  0  0  0  0  0  0  0
   -4.0388   -0.9028   -2.1540 H   0  0  0  0  0  0  0  0  0  0  0  0
   -3.8702    0.6594   -3.8736 H   0  0  0  0  0  0  0  0  0  0  0  0
   -2.4326    1.3150   -3.2974 H   0  0  0  0  0  0  0  0  0  0  0  0
   -3.2992    1.9034   -1.0739 H   0  0  0  0  0  0  0  0  0  0  0  0
   -4.8955    1.3973   -1.7087 H   0  0  0  0  0  0  0  0  0  0  0  0
   -4.0414    0.7441    2.2284 H   0  0  0  0  0  0  0  0  0  0  0  0
  1  2  1  0
  2  3  1  0
  3  4  2  0
  3  5  1  0
  5  6  1  0
  6  7  1  0
  7  8  2  0
  8  9  1  0
  9 10  2  0
 10 11  1  0
 11 12  2  0
 12  7  1  0
  5 13  1  0
 13 14  1  0
 14 15  2  0
 14 16  1  0
 16 17  1  0
 16 18  1  0
 18 19  1  0
 19 20  2  0
 19 21  1  0
  1 22  1  0
  1 23  1  0
  1 24  1  0
  5 25  1  0
  6 26  1  0
  6 27  1  0
  8 28  1  0
  9 29  1  0
 10 30  1  0
 11 31  1  0
 12 32  1  0
 13 33  1  0
 16 34  1  0
 17 35  1  0
 17 36  1  0
 18 37  1  0
 18 38  1  0
 21 39  1  0
M  END
> <ID>
HT0188

> <Class>
0.0

> <Clusters>
94

> <Fold>
4

$$$$