
     RDKit          3D

 23 23  0  0  0  0  0  0  0  0999 V2000
   -3.8462   -0.0908    0.5680 N   0  0  0  0  0  0  0  0  0  0  0  0
   -2.5603   -0.4331   -0.0341 C   0  0  0  0  0  0  0  0  0  0  0  0
   -1.4486    0.4832    0.5170 C   0  0  2  0  0  0  0  0  0  0  0  0
   -1.7005    1.8221    0.1715 O   0  0  0  0  0  0  0  0  0  0  0  0
   -0.0328    0.0999    0.1059 C   0  0  0  0  0  0  0  0  0  0  0  0
    0.2485   -0.8375   -0.9066 C   0  0  0  0  0  0  0  0  0  0  0  0
    1.5694   -1.1396   -1.2436 C   0  0  0  0  0  0  0  0  0  0  0  0
    2.6363   -0.5167   -0.5888 C   0  0  0  0  0  0  0  0  0  0  0  0
    3.9323   -0.8658   -0.9737 O   0  0  0  0  0  0  0  0  0  0  0  0
    2.3686    0.4321    0.4246 C   0  0  0  0  0  0  0  0  0  0  0  0
    3.3799    1.0981    1.1202 O   0  0  0  0  0  0  0  0  0  0  0  0
    1.0413    0.7293    0.7570 C   0  0  0  0  0  0  0  0  0  0  0  0
   -4.1645    0.8218    0.1679 H   0  0  0  0  0  0  0  0  0  0  0  0
   -4.5431   -0.8064    0.2584 H   0  0  0  0  0  0  0  0  0  0  0  0
   -2.3202   -1.4896    0.2187 H   0  0  0  0  0  0  0  0  0  0  0  0
   -2.6311   -0.3383   -1.1411 H   0  0  0  0  0  0  0  0  0  0  0  0
   -1.4963    0.4055    1.6258 H   0  0  0  0  0  0  0  0  0  0  0  0
   -1.6392    1.8884   -0.8178 H   0  0  0  0  0  0  0  0  0  0  0  0
   -0.5399   -1.3391   -1.4492 H   0  0  0  0  0  0  0  0  0  0  0  0
    1.7665   -1.8641   -2.0239 H   0  0  0  0  0  0  0  0  0  0  0  0
    4.7679   -0.4756   -0.5626 H   0  0  0  0  0  0  0  0  0  0  0  0
    4.3660    0.9572    0.9553 H   0  0  0  0  0  0  0  0  0  0  0  0
    0.8458    1.4592    1.5338 H   0  0  0  0  0  0  0  0  0  0  0  0
  1  2  1  0
  2  3  1  0
  3  4  1  0
  3  5  1  0
  5  6  2  0
  6  7  1  0
  7  8  2  0
  8  9  1  0
  8 10  1  0
 10 11  1  0
 10 12  2  0
 12  5  1  0
  1 13  1  0
  1 14  1  0
  2 15  1  0
  2 16  1  0
  3 17  1  1
  4 18  1  0
  6 19  1  0
  7 20  1  0
  9 21  1  0
 11 22  1  0
 12 23  1  0
M  END
> <ID>
HT1520

> <Class>
0.0

> <Clusters>
138

> <Fold>
4

$$$$