
     RDKit          3D

 59 61  0  0  0  0  0  0  0  0999 V2000
   -4.9548    2.0832    0.7181 C   0  0  0  0  0  0  0  0  0  0  0  0
   -5.9822    1.4863   -0.2553 C   0  0  0  0  0  0  0  0  0  0  0  0
   -7.2548    1.0100    0.4764 C   0  0  0  0  0  0  0  0  0  0  0  0
   -8.2893    0.5033   -0.5324 C   0  0  0  0  0  0  0  0  0  0  0  0
   -7.6827   -0.5565   -1.4553 C   0  0  0  0  0  0  0  0  0  0  0  0
   -6.3955   -0.0346   -2.1184 C   0  0  0  0  0  0  0  0  0  0  0  0
   -5.4034    0.4218   -1.1194 N   0  0  0  0  0  0  0  0  0  0  0  0
   -4.7657   -0.7107   -0.3989 C   0  0  0  0  0  0  0  0  0  0  0  0
   -3.2461   -0.6366   -0.5684 C   0  0  0  0  0  0  0  0  0  0  0  0
   -2.5479   -1.7866    0.1645 C   0  0  0  0  0  0  0  0  0  0  0  0
   -1.1370   -1.7280   -0.0362 O   0  0  0  0  0  0  0  0  0  0  0  0
   -0.3055   -0.7834    0.5797 C   0  0  0  0  0  0  0  0  0  0  0  0
   -0.7829    0.0274    1.4211 O   0  0  0  0  0  0  0  0  0  0  0  0
    1.1362   -0.7467    0.2497 C   0  0  0  0  0  0  0  0  0  0  0  0
    1.6728   -1.6465   -0.6860 C   0  0  0  0  0  0  0  0  0  0  0  0
    3.0344   -1.6140   -0.9996 C   0  0  0  0  0  0  0  0  0  0  0  0
    3.8865   -0.6886   -0.3878 C   0  0  0  0  0  0  0  0  0  0  0  0
    5.2450   -0.7043   -0.7462 O   0  0  0  0  0  0  0  0  0  0  0  0
    6.2742    0.0971   -0.1605 C   0  0  0  0  0  0  0  0  0  0  0  0
    7.5092    0.0844   -1.0896 C   0  0  0  0  0  0  0  0  0  0  0  0
    8.8424    0.3327   -0.3520 C   0  0  0  0  0  0  0  0  0  0  0  0
    8.6450    1.1577    0.9237 C   0  0  0  0  0  0  0  0  0  0  0  0
    7.7036    0.4494    1.9187 C   0  0  0  0  0  0  0  0  0  0  0  0
    6.6425   -0.4366    1.2350 C   0  0  0  0  0  0  0  0  0  0  0  0
    3.3520    0.2182    0.5474 C   0  0  0  0  0  0  0  0  0  0  0  0
    1.9901    0.1869    0.8624 C   0  0  0  0  0  0  0  0  0  0  0  0
   -5.3883    2.9736    1.2211 H   0  0  0  0  0  0  0  0  0  0  0  0
   -4.6583    1.3590    1.5041 H   0  0  0  0  0  0  0  0  0  0  0  0
   -4.0524    2.4118    0.1613 H   0  0  0  0  0  0  0  0  0  0  0  0
   -6.2813    2.3323   -0.9161 H   0  0  0  0  0  0  0  0  0  0  0  0
   -7.0197    0.2052    1.2043 H   0  0  0  0  0  0  0  0  0  0  0  0
   -7.6973    1.8567    1.0451 H   0  0  0  0  0  0  0  0  0  0  0  0
   -9.1553    0.0685    0.0117 H   0  0  0  0  0  0  0  0  0  0  0  0
   -8.6617    1.3556   -1.1425 H   0  0  0  0  0  0  0  0  0  0  0  0
   -7.4683   -1.4777   -0.8721 H   0  0  0  0  0  0  0  0  0  0  0  0
   -8.4198   -0.8203   -2.2438 H   0  0  0  0  0  0  0  0  0  0  0  0
   -6.6496    0.8099   -2.7964 H   0  0  0  0  0  0  0  0  0  0  0  0
   -5.9580   -0.8277   -2.7641 H   0  0  0  0  0  0  0  0  0  0  0  0
   -5.0190   -0.7189    0.6810 H   0  0  0  0  0  0  0  0  0  0  0  0
   -5.1008   -1.6950   -0.7968 H   0  0  0  0  0  0  0  0  0  0  0  0
   -2.9958   -0.6892   -1.6505 H   0  0  0  0  0  0  0  0  0  0  0  0
   -2.8744    0.3312   -0.1750 H   0  0  0  0  0  0  0  0  0  0  0  0
   -2.9157   -2.7527   -0.2420 H   0  0  0  0  0  0  0  0  0  0  0  0
   -2.7792   -1.7595    1.2521 H   0  0  0  0  0  0  0  0  0  0  0  0
    1.0421   -2.3765   -1.1775 H   0  0  0  0  0  0  0  0  0  0  0  0
    3.4313   -2.3149   -1.7231 H   0  0  0  0  0  0  0  0  0  0  0  0
    5.9264    1.1505   -0.0766 H   0  0  0  0  0  0  0  0  0  0  0  0
    7.3717    0.8632   -1.8714 H   0  0  0  0  0  0  0  0  0  0  0  0
    7.5773   -0.8949   -1.6125 H   0  0  0  0  0  0  0  0  0  0  0  0
    9.3022   -0.6429   -0.0795 H   0  0  0  0  0  0  0  0  0  0  0  0
    9.5499    0.8584   -1.0292 H   0  0  0  0  0  0  0  0  0  0  0  0
    9.6292    1.3378    1.4073 H   0  0  0  0  0  0  0  0  0  0  0  0
    8.2194    2.1482    0.6498 H   0  0  0  0  0  0  0  0  0  0  0  0
    8.3040   -0.1831    2.6083 H   0  0  0  0  0  0  0  0  0  0  0  0
    7.1956    1.2216    2.5366 H   0  0  0  0  0  0  0  0  0  0  0  0
    7.0369   -1.4719    1.1319 H   0  0  0  0  0  0  0  0  0  0  0  0
    5.7431   -0.4917    1.8834 H   0  0  0  0  0  0  0  0  0  0  0  0
    3.9734    0.9529    1.0385 H   0  0  0  0  0  0  0  0  0  0  0  0
    1.6064    0.8953    1.5860 H   0  0  0  0  0  0  0  0  0  0  0  0
  1  2  1  0
  2  3  1  0
  3  4  1  0
  4  5  1  0
  5  6  1  0
  6  7  1  0
  7  2  1  0
  7  8  1  0
  8  9  1  0
  9 10  1  0
 10 11  1  0
 11 12  1  0
 12 13  2  0
 12 14  1  0
 14 15  2  0
 15 16  1  0
 16 17  2  0
 17 18  1  0
 18 19  1  0
 19 20  1  0
 20 21  1  0
 21 22  1  0
 22 23  1  0
 23 24  1  0
 24 19  1  0
 17 25  1  0
 25 26  2  0
 26 14  1  0
  1 27  1  0
  1 28  1  0
  1 29  1  0
  2 30  1  0
  3 31  1  0
  3 32  1  0
  4 33  1  0
  4 34  1  0
  5 35  1  0
  5 36  1  0
  6 37  1  0
  6 38  1  0
  8 39  1  0
  8 40  1  0
  9 41  1  0
  9 42  1  0
 10 43  1  0
 10 44  1  0
 15 45  1  0
 16 46  1  0
 19 47  1  0
 20 48  1  0
 20 49  1  0
 21 50  1  0
 21 51  1  0
 22 52  1  0
 22 53  1  0
 23 54  1  0
 23 55  1  0
 24 56  1  0
 24 57  1  0
 25 58  1  0
 26 59  1  0
M  END
> <ID>
HT3639

> <Class>
0.0

> <Clusters>
91

> <Fold>
4

$$$$