
     RDKit          3D

 27 29  0  0  0  0  0  0  0  0999 V2000
   -4.9461    0.8006   -0.0416 N   0  0  0  0  0  0  0  0  0  0  0  0
   -3.6533    0.1908   -0.0845 C   0  0  0  0  0  0  0  0  0  0  0  0
   -3.5347   -1.1996   -0.2285 C   0  0  0  0  0  0  0  0  0  0  0  0
   -2.2734   -1.8016   -0.2711 C   0  0  0  0  0  0  0  0  0  0  0  0
   -1.1164   -1.0159   -0.1697 C   0  0  0  0  0  0  0  0  0  0  0  0
    0.1590   -1.5944   -0.2096 C   0  0  0  0  0  0  0  0  0  0  0  0
    1.2957   -0.7820   -0.1058 C   0  0  0  0  0  0  0  0  0  0  0  0
    2.5857   -1.3305   -0.1423 C   0  0  0  0  0  0  0  0  0  0  0  0
    3.7040   -0.4978   -0.0366 C   0  0  0  0  0  0  0  0  0  0  0  0
    3.5457    0.8887    0.1064 C   0  0  0  0  0  0  0  0  0  0  0  0
    4.6933    1.7352    0.2140 N   0  0  0  0  0  0  0  0  0  0  0  0
    2.2569    1.4411    0.1433 C   0  0  0  0  0  0  0  0  0  0  0  0
    1.1328    0.6141    0.0381 C   0  0  0  0  0  0  0  0  0  0  0  0
   -0.1150    1.1538    0.0744 N   0  0  0  0  0  0  0  0  0  0  0  0
   -1.2324    0.3848   -0.0246 C   0  0  0  0  0  0  0  0  0  0  0  0
   -2.4982    0.9801    0.0172 C   0  0  0  0  0  0  0  0  0  0  0  0
   -5.8127    0.2225   -0.1165 H   0  0  0  0  0  0  0  0  0  0  0  0
   -5.0463    1.8347    0.0653 H   0  0  0  0  0  0  0  0  0  0  0  0
   -4.4209   -1.8168   -0.3078 H   0  0  0  0  0  0  0  0  0  0  0  0
   -2.2027   -2.8770   -0.3829 H   0  0  0  0  0  0  0  0  0  0  0  0
    0.2660   -2.6680   -0.3206 H   0  0  0  0  0  0  0  0  0  0  0  0
    2.7287   -2.3989   -0.2521 H   0  0  0  0  0  0  0  0  0  0  0  0
    4.6950   -0.9330   -0.0660 H   0  0  0  0  0  0  0  0  0  0  0  0
    4.5874    2.7688    0.3208 H   0  0  0  0  0  0  0  0  0  0  0  0
    5.6575    1.3346    0.1877 H   0  0  0  0  0  0  0  0  0  0  0  0
    2.1293    2.5114    0.2536 H   0  0  0  0  0  0  0  0  0  0  0  0
   -2.5845    2.0544    0.1286 H   0  0  0  0  0  0  0  0  0  0  0  0
  1  2  1  0
  2  3  2  0
  3  4  1  0
  4  5  2  0
  5  6  1  0
  6  7  2  0
  7  8  1  0
  8  9  2  0
  9 10  1  0
 10 11  1  0
 10 12  2  0
 12 13  1  0
 13  7  1  0
 13 14  2  0
 14 15  1  0
 15  5  1  0
 15 16  2  0
 16  2  1  0
  1 17  1  0
  1 18  1  0
  3 19  1  0
  4 20  1  0
  6 21  1  0
  8 22  1  0
  9 23  1  0
 11 24  1  0
 11 25  1  0
 12 26  1  0
 16 27  1  0
M  END
> <ID>
HT1749

> <Class>
0.0

> <Clusters>
255

> <Fold>
4

$$$$