
     RDKit          3D

 63 63  0  0  0  0  0  0  0  0999 V2000
   -8.4625    1.5307   -0.9532 C   0  0  0  0  0  0  0  0  0  0  0  0
   -8.5467    0.6380    0.2929 C   0  0  0  0  0  0  0  0  0  0  0  0
   -8.6075   -0.8431   -0.0981 C   0  0  0  0  0  0  0  0  0  0  0  0
   -7.4196    0.9464    1.3123 C   0  0  0  0  0  0  0  0  0  0  0  0
   -5.9950    0.5441    0.8650 C   0  0  0  0  0  0  0  0  0  0  0  0
   -5.5384   -0.7770    1.5063 C   0  0  0  0  0  0  0  0  0  0  0  0
   -4.3195   -1.4013    0.8045 C   0  0  0  0  0  0  0  0  0  0  0  0
   -3.0110   -0.6040    0.9874 C   0  0  0  0  0  0  0  0  0  0  0  0
   -2.7126    0.3310   -0.2010 C   0  0  0  0  0  0  0  0  0  0  0  0
   -1.2903    0.9094   -0.1344 C   0  0  0  0  0  0  0  0  0  0  0  0
   -0.2525   -0.0558   -0.7283 C   0  0  0  0  0  0  0  0  0  0  0  0
    1.1757    0.4162   -0.4450 C   0  0  0  0  0  0  0  0  0  0  0  0
    2.1972   -0.5079   -1.1193 C   0  0  0  0  0  0  0  0  0  0  0  0
    3.6235   -0.2028   -0.6456 C   0  0  0  0  0  0  0  0  0  0  0  0
    4.6428   -1.1049   -1.3602 C   0  0  0  0  0  0  0  0  0  0  0  0
    6.0390   -1.0295   -0.7268 C   0  0  0  0  0  0  0  0  0  0  0  0
    6.7481    0.3021   -1.0059 C   0  0  0  0  0  0  0  0  0  0  0  0
    8.0839    0.2933   -0.3990 N   0  0  0  0  0  0  0  0  0  0  0  0
    8.2291    0.6345    0.9187 C   0  0  0  0  0  0  0  0  0  0  0  0
    9.4880    0.6088    1.5233 C   0  0  0  0  0  0  0  0  0  0  0  0
   10.5998    0.2272    0.7739 C   0  0  0  0  0  0  0  0  0  0  0  0
   10.4427   -0.1218   -0.5661 C   0  0  0  0  0  0  0  0  0  0  0  0
    9.1694   -0.0837   -1.1409 C   0  0  0  0  0  0  0  0  0  0  0  0
   -9.3683    1.3867   -1.5804 H   0  0  0  0  0  0  0  0  0  0  0  0
   -7.5727    1.2887   -1.5700 H   0  0  0  0  0  0  0  0  0  0  0  0
   -8.4178    2.6004   -0.6586 H   0  0  0  0  0  0  0  0  0  0  0  0
   -9.5077    0.8794    0.7966 H   0  0  0  0  0  0  0  0  0  0  0  0
   -9.4963   -1.0263   -0.7395 H   0  0  0  0  0  0  0  0  0  0  0  0
   -7.7009   -1.1474   -0.6638 H   0  0  0  0  0  0  0  0  0  0  0  0
   -8.7068   -1.4742    0.8095 H   0  0  0  0  0  0  0  0  0  0  0  0
   -7.6695    0.4627    2.2819 H   0  0  0  0  0  0  0  0  0  0  0  0
   -7.4287    2.0399    1.5149 H   0  0  0  0  0  0  0  0  0  0  0  0
   -5.9288    0.4736   -0.2389 H   0  0  0  0  0  0  0  0  0  0  0  0
   -5.2964    1.3442    1.1841 H   0  0  0  0  0  0  0  0  0  0  0  0
   -6.3615   -1.5190    1.4635 H   0  0  0  0  0  0  0  0  0  0  0  0
   -5.3089   -0.6078    2.5811 H   0  0  0  0  0  0  0  0  0  0  0  0
   -4.5453   -1.5734   -0.2698 H   0  0  0  0  0  0  0  0  0  0  0  0
   -4.1701   -2.4091    1.2525 H   0  0  0  0  0  0  0  0  0  0  0  0
   -2.1801   -1.3333    1.0908 H   0  0  0  0  0  0  0  0  0  0  0  0
   -3.0374   -0.0115    1.9268 H   0  0  0  0  0  0  0  0  0  0  0  0
   -2.8494   -0.2107   -1.1615 H   0  0  0  0  0  0  0  0  0  0  0  0
   -3.4333    1.1736   -0.1905 H   0  0  0  0  0  0  0  0  0  0  0  0
   -1.2628    1.8545   -0.7189 H   0  0  0  0  0  0  0  0  0  0  0  0
   -1.0322    1.1582    0.9190 H   0  0  0  0  0  0  0  0  0  0  0  0
   -0.3828   -1.0715   -0.2988 H   0  0  0  0  0  0  0  0  0  0  0  0
   -0.4123   -0.1238   -1.8276 H   0  0  0  0  0  0  0  0  0  0  0  0
    1.3114    1.4520   -0.8252 H   0  0  0  0  0  0  0  0  0  0  0  0
    1.3413    0.4169    0.6555 H   0  0  0  0  0  0  0  0  0  0  0  0
    1.9547   -1.5683   -0.8785 H   0  0  0  0  0  0  0  0  0  0  0  0
    2.1340   -0.3768   -2.2236 H   0  0  0  0  0  0  0  0  0  0  0  0
    3.6839   -0.3713    0.4536 H   0  0  0  0  0  0  0  0  0  0  0  0
    3.8582    0.8647   -0.8532 H   0  0  0  0  0  0  0  0  0  0  0  0
    4.6983   -0.8336   -2.4377 H   0  0  0  0  0  0  0  0  0  0  0  0
    4.2990   -2.1607   -1.2960 H   0  0  0  0  0  0  0  0  0  0  0  0
    6.6603   -1.8488   -1.1510 H   0  0  0  0  0  0  0  0  0  0  0  0
    5.9665   -1.1976    0.3701 H   0  0  0  0  0  0  0  0  0  0  0  0
    6.8218    0.4586   -2.1060 H   0  0  0  0  0  0  0  0  0  0  0  0
    6.1582    1.1509   -0.5991 H   0  0  0  0  0  0  0  0  0  0  0  0
    7.3675    0.9242    1.5090 H   0  0  0  0  0  0  0  0  0  0  0  0
    9.5968    0.8801    2.5656 H   0  0  0  0  0  0  0  0  0  0  0  0
   11.5805    0.1978    1.2295 H   0  0  0  0  0  0  0  0  0  0  0  0
   11.2979   -0.4247   -1.1536 H   0  0  0  0  0  0  0  0  0  0  0  0
    9.0562   -0.3671   -2.1798 H   0  0  0  0  0  0  0  0  0  0  0  0
  1  2  1  0
  2  3  1  0
  2  4  1  0
  4  5  1  0
  5  6  1  0
  6  7  1  0
  7  8  1  0
  8  9  1  0
  9 10  1  0
 10 11  1  0
 11 12  1  0
 12 13  1  0
 13 14  1  0
 14 15  1  0
 15 16  1  0
 16 17  1  0
 17 18  1  0
 18 19  2  0
 19 20  1  0
 20 21  2  0
 21 22  1  0
 22 23  2  0
 23 18  1  0
  1 24  1  0
  1 25  1  0
  1 26  1  0
  2 27  1  0
  3 28  1  0
  3 29  1  0
  3 30  1  0
  4 31  1  0
  4 32  1  0
  5 33  1  0
  5 34  1  0
  6 35  1  0
  6 36  1  0
  7 37  1  0
  7 38  1  0
  8 39  1  0
  8 40  1  0
  9 41  1  0
  9 42  1  0
 10 43  1  0
 10 44  1  0
 11 45  1  0
 11 46  1  0
 12 47  1  0
 12 48  1  0
 13 49  1  0
 13 50  1  0
 14 51  1  0
 14 52  1  0
 15 53  1  0
 15 54  1  0
 16 55  1  0
 16 56  1  0
 17 57  1  0
 17 58  1  0
 19 59  1  0
 20 60  1  0
 21 61  1  0
 22 62  1  0
 23 63  1  0
M  CHG  1  18   1
M  END
> <ID>
HT3454

> <Class>
0.0

> <Clusters>
270

> <Fold>
4

$$$$