
     RDKit          3D

 44 47  0  0  0  0  0  0  0  0999 V2000
    4.5968   -0.5958   -1.9316 C   0  0  0  0  0  0  0  0  0  0  0  0
    3.6051   -0.6384   -0.8462 N   0  0  0  0  0  0  0  0  0  0  0  0
    3.0568    0.7122   -0.6148 C   0  0  0  0  0  0  0  0  0  0  0  0
    2.1076    0.6999    0.5848 C   0  0  0  0  0  0  0  0  0  0  0  0
    1.0188   -0.3352    0.3744 C   0  0  0  0  0  0  0  0  0  0  0  0
   -0.3052   -0.0487    0.5260 C   0  0  0  0  0  0  0  0  0  0  0  0
   -1.3710   -1.0699    0.3690 C   0  0  0  0  0  0  0  0  0  0  0  0
   -1.3400   -2.1826    1.2326 C   0  0  0  0  0  0  0  0  0  0  0  0
   -2.3111   -3.1784    1.1541 C   0  0  0  0  0  0  0  0  0  0  0  0
   -3.3443   -3.0707    0.2295 C   0  0  0  0  0  0  0  0  0  0  0  0
   -3.4191   -1.9592   -0.6091 C   0  0  0  0  0  0  0  0  0  0  0  0
   -2.4521   -0.9362   -0.5564 C   0  0  0  0  0  0  0  0  0  0  0  0
   -2.7109    0.2560   -1.4760 C   0  0  0  0  0  0  0  0  0  0  0  0
   -1.6371    1.3452   -1.5866 C   0  0  0  0  0  0  0  0  0  0  0  0
   -1.4126    2.0212   -0.2613 C   0  0  0  0  0  0  0  0  0  0  0  0
   -1.8313    3.3388   -0.0286 C   0  0  0  0  0  0  0  0  0  0  0  0
   -1.6114    3.9280    1.2183 C   0  0  0  0  0  0  0  0  0  0  0  0
   -0.9728    3.1934    2.2200 C   0  0  0  0  0  0  0  0  0  0  0  0
   -0.5666    1.9192    1.9762 N   0  0  0  0  0  0  0  0  0  0  0  0
   -0.7669    1.3259    0.7674 C   0  0  0  0  0  0  0  0  0  0  0  0
    1.5197   -1.7055   -0.0406 C   0  0  0  0  0  0  0  0  0  0  0  0
    2.5198   -1.5764   -1.1952 C   0  0  0  0  0  0  0  0  0  0  0  0
    4.1400   -0.2444   -2.8840 H   0  0  0  0  0  0  0  0  0  0  0  0
    5.4332    0.0832   -1.6590 H   0  0  0  0  0  0  0  0  0  0  0  0
    5.0339   -1.6052   -2.0904 H   0  0  0  0  0  0  0  0  0  0  0  0
    3.8828    1.4234   -0.3910 H   0  0  0  0  0  0  0  0  0  0  0  0
    2.5159    1.0848   -1.5157 H   0  0  0  0  0  0  0  0  0  0  0  0
    1.7237    1.7293    0.7295 H   0  0  0  0  0  0  0  0  0  0  0  0
    2.6817    0.4272    1.4965 H   0  0  0  0  0  0  0  0  0  0  0  0
   -0.5530   -2.2806    1.9709 H   0  0  0  0  0  0  0  0  0  0  0  0
   -2.2647   -4.0333    1.8163 H   0  0  0  0  0  0  0  0  0  0  0  0
   -4.1003   -3.8433    0.1721 H   0  0  0  0  0  0  0  0  0  0  0  0
   -4.2505   -1.8887   -1.3005 H   0  0  0  0  0  0  0  0  0  0  0  0
   -3.6604    0.7389   -1.1552 H   0  0  0  0  0  0  0  0  0  0  0  0
   -2.8844   -0.1345   -2.5030 H   0  0  0  0  0  0  0  0  0  0  0  0
   -0.6864    0.9132   -1.9686 H   0  0  0  0  0  0  0  0  0  0  0  0
   -1.9738    2.0900   -2.3406 H   0  0  0  0  0  0  0  0  0  0  0  0
   -2.3310    3.9047   -0.8047 H   0  0  0  0  0  0  0  0  0  0  0  0
   -1.9347    4.9434    1.4074 H   0  0  0  0  0  0  0  0  0  0  0  0
   -0.7981    3.6372    3.1909 H   0  0  0  0  0  0  0  0  0  0  0  0
    2.0178   -2.1848    0.8295 H   0  0  0  0  0  0  0  0  0  0  0  0
    0.7098   -2.3776   -0.3882 H   0  0  0  0  0  0  0  0  0  0  0  0
    2.9425   -2.5858   -1.3963 H   0  0  0  0  0  0  0  0  0  0  0  0
    1.9840   -1.2401   -2.1133 H   0  0  0  0  0  0  0  0  0  0  0  0
  1  2  1  0
  2  3  1  0
  3  4  1  0
  4  5  1  0
  5  6  2  3
  6  7  1  0
  7  8  2  0
  8  9  1  0
  9 10  2  0
 10 11  1  0
 11 12  2  0
 12  7  1  0
 12 13  1  0
 13 14  1  0
 14 15  1  0
 15 16  2  0
 16 17  1  0
 17 18  2  0
 18 19  1  0
 19 20  2  0
 20  6  1  0
 20 15  1  0
  5 21  1  0
 21 22  1  0
 22  2  1  0
  1 23  1  0
  1 24  1  0
  1 25  1  0
  3 26  1  0
  3 27  1  0
  4 28  1  0
  4 29  1  0
  8 30  1  0
  9 31  1  0
 10 32  1  0
 11 33  1  0
 13 34  1  0
 13 35  1  0
 14 36  1  0
 14 37  1  0
 16 38  1  0
 17 39  1  0
 18 40  1  0
 21 41  1  0
 21 42  1  0
 22 43  1  0
 22 44  1  0
M  END
> <ID>
HT0212

> <Class>
0.0

> <Clusters>
26

> <Fold>
4

$$$$