
     RDKit          3D

 66 67  0  0  0  0  0  0  0  0999 V2000
    6.9424    3.3523   -1.1584 C   0  0  0  0  0  0  0  0  0  0  0  0
    7.4209    2.3491   -0.1092 C   0  0  0  0  0  0  0  0  0  0  0  0
    6.3038    1.4055    0.3615 C   0  0  0  0  0  0  0  0  0  0  0  0
    5.2604    2.1191    1.2304 C   0  0  0  0  0  0  0  0  0  0  0  0
    4.0790    0.9610    1.9111 S   0  0  0  0  0  0  0  0  0  0  0  0
    4.7970   -0.0363    2.7784 O   0  0  0  0  0  0  0  0  0  0  0  0
    3.1060    1.7261    2.7625 O   0  0  0  0  0  0  0  0  0  0  0  0
    3.1932    0.1730    0.6308 N   0  0  0  0  0  0  0  0  0  0  0  0
    3.7748   -1.1342    0.2694 C   0  0  1  0  0  0  0  0  0  0  0  0
    3.1882   -2.2685    1.1423 C   0  0  0  0  0  0  0  0  0  0  0  0
    1.6788   -2.3382    1.1128 C   0  0  0  0  0  0  0  0  0  0  0  0
    0.9114   -1.4491    1.8818 C   0  0  0  0  0  0  0  0  0  0  0  0
   -0.4838   -1.5179    1.8586 C   0  0  0  0  0  0  0  0  0  0  0  0
   -1.1357   -2.4768    1.0763 C   0  0  0  0  0  0  0  0  0  0  0  0
   -2.5374   -2.4946    1.0792 O   0  0  0  0  0  0  0  0  0  0  0  0
   -3.3372   -3.3558    0.2725 C   0  0  0  0  0  0  0  0  0  0  0  0
   -4.8224   -3.0413    0.4823 C   0  0  0  0  0  0  0  0  0  0  0  0
   -5.2904   -1.7781   -0.2625 C   0  0  0  0  0  0  0  0  0  0  0  0
   -4.6730   -0.4842    0.2985 C   0  0  0  0  0  0  0  0  0  0  0  0
   -5.3461    0.7827   -0.2713 C   0  0  0  0  0  0  0  0  0  0  0  0
   -5.1520    0.9025   -1.8043 C   0  0  0  0  0  0  0  0  0  0  0  0
   -5.2724    2.3541   -2.3030 C   0  0  0  0  0  0  0  0  0  0  0  0
   -6.1308    3.1352   -1.4062 N   0  0  0  0  0  0  0  0  0  0  0  0
   -5.4912    3.3237   -0.0920 C   0  0  0  0  0  0  0  0  0  0  0  0
   -4.8067    2.0412    0.4326 C   0  0  0  0  0  0  0  0  0  0  0  0
   -0.3693   -3.3826    0.3193 C   0  0  0  0  0  0  0  0  0  0  0  0
    1.0269   -3.3163    0.3444 C   0  0  0  0  0  0  0  0  0  0  0  0
    3.5527   -1.4254   -1.1985 C   0  0  0  0  0  0  0  0  0  0  0  0
    2.3894   -1.3897   -1.6827 O   0  0  0  0  0  0  0  0  0  0  0  0
    4.6268   -1.7112   -2.0373 O   0  0  0  0  0  0  0  0  0  0  0  0
    6.4744    2.8239   -2.0153 H   0  0  0  0  0  0  0  0  0  0  0  0
    7.8091    3.9350   -1.5337 H   0  0  0  0  0  0  0  0  0  0  0  0
    6.2133    4.0633   -0.7191 H   0  0  0  0  0  0  0  0  0  0  0  0
    8.2311    1.7349   -0.5586 H   0  0  0  0  0  0  0  0  0  0  0  0
    7.8537    2.8945    0.7574 H   0  0  0  0  0  0  0  0  0  0  0  0
    5.8119    0.9435   -0.5212 H   0  0  0  0  0  0  0  0  0  0  0  0
    6.7708    0.5898    0.9560 H   0  0  0  0  0  0  0  0  0  0  0  0
    5.7622    2.6446    2.0711 H   0  0  0  0  0  0  0  0  0  0  0  0
    4.7039    2.8659    0.6261 H   0  0  0  0  0  0  0  0  0  0  0  0
    3.2319    0.8226   -0.1880 H   0  0  0  0  0  0  0  0  0  0  0  0
    4.8736   -1.1260    0.4365 H   0  0  0  0  0  0  0  0  0  0  0  0
    3.6197   -3.2361    0.8036 H   0  0  0  0  0  0  0  0  0  0  0  0
    3.5182   -2.1487    2.1951 H   0  0  0  0  0  0  0  0  0  0  0  0
    1.3922   -0.7047    2.5037 H   0  0  0  0  0  0  0  0  0  0  0  0
   -1.0628   -0.8203    2.4507 H   0  0  0  0  0  0  0  0  0  0  0  0
   -3.1482   -4.4103    0.5710 H   0  0  0  0  0  0  0  0  0  0  0  0
   -3.0702   -3.2338   -0.8006 H   0  0  0  0  0  0  0  0  0  0  0  0
   -5.0412   -2.9512    1.5691 H   0  0  0  0  0  0  0  0  0  0  0  0
   -5.4144   -3.9017    0.0990 H   0  0  0  0  0  0  0  0  0  0  0  0
   -5.0489   -1.8771   -1.3430 H   0  0  0  0  0  0  0  0  0  0  0  0
   -6.3968   -1.7201   -0.1691 H   0  0  0  0  0  0  0  0  0  0  0  0
   -4.7864   -0.4850    1.4056 H   0  0  0  0  0  0  0  0  0  0  0  0
   -3.5870   -0.4524    0.0639 H   0  0  0  0  0  0  0  0  0  0  0  0
   -6.4374    0.7237   -0.0576 H   0  0  0  0  0  0  0  0  0  0  0  0
   -5.9222    0.2790   -2.3093 H   0  0  0  0  0  0  0  0  0  0  0  0
   -4.1551    0.5124   -2.1049 H   0  0  0  0  0  0  0  0  0  0  0  0
   -5.7054    2.3552   -3.3272 H   0  0  0  0  0  0  0  0  0  0  0  0
   -4.2619    2.8196   -2.3678 H   0  0  0  0  0  0  0  0  0  0  0  0
   -6.2757    4.0794   -1.8344 H   0  0  0  0  0  0  0  0  0  0  0  0
   -4.7417    4.1451   -0.1443 H   0  0  0  0  0  0  0  0  0  0  0  0
   -6.2742    3.6352    0.6317 H   0  0  0  0  0  0  0  0  0  0  0  0
   -3.7107    2.1157    0.2563 H   0  0  0  0  0  0  0  0  0  0  0  0
   -4.9642    1.9648    1.5307 H   0  0  0  0  0  0  0  0  0  0  0  0
   -0.8415   -4.1415   -0.2893 H   0  0  0  0  0  0  0  0  0  0  0  0
    1.5994   -4.0211   -0.2461 H   0  0  0  0  0  0  0  0  0  0  0  0
    5.5771   -1.7435   -1.6891 H   0  0  0  0  0  0  0  0  0  0  0  0
  1  2  1  0
  2  3  1  0
  3  4  1  0
  4  5  1  0
  5  6  2  0
  5  7  2  0
  5  8  1  0
  8  9  1  0
  9 10  1  0
 10 11  1  0
 11 12  2  0
 12 13  1  0
 13 14  2  0
 14 15  1  0
 15 16  1  0
 16 17  1  0
 17 18  1  0
 18 19  1  0
 19 20  1  0
 20 21  1  0
 21 22  1  0
 22 23  1  0
 23 24  1  0
 24 25  1  0
 25 20  1  0
 14 26  1  0
 26 27  2  0
 27 11  1  0
  9 28  1  0
 28 29  2  0
 28 30  1  0
  1 31  1  0
  1 32  1  0
  1 33  1  0
  2 34  1  0
  2 35  1  0
  3 36  1  0
  3 37  1  0
  4 38  1  0
  4 39  1  0
  8 40  1  0
  9 41  1  6
 10 42  1  0
 10 43  1  0
 12 44  1  0
 13 45  1  0
 16 46  1  0
 16 47  1  0
 17 48  1  0
 17 49  1  0
 18 50  1  0
 18 51  1  0
 19 52  1  0
 19 53  1  0
 20 54  1  0
 21 55  1  0
 21 56  1  0
 22 57  1  0
 22 58  1  0
 23 59  1  0
 24 60  1  0
 24 61  1  0
 25 62  1  0
 25 63  1  0
 26 64  1  0
 27 65  1  0
 30 66  1  0
M  END
> <ID>
HT2071

> <Class>
0.0

> <Clusters>
91

> <Fold>
4

$$$$