
     RDKit          3D

 15 15  0  0  0  0  0  0  0  0999 V2000
    2.2932   -1.2546   -0.0807 O   0  0  0  0  0  0  0  0  0  0  0  0
    1.8590    0.0681    0.0822 C   0  0  0  0  0  0  0  0  0  0  0  0
    0.3548    0.1723    0.0374 C   0  0  0  0  0  0  0  0  0  0  0  0
   -0.4773   -0.9471   -0.1476 C   0  0  0  0  0  0  0  0  0  0  0  0
   -1.8642   -0.7895   -0.1806 C   0  0  0  0  0  0  0  0  0  0  0  0
   -2.4126    0.4844   -0.0287 C   0  0  0  0  0  0  0  0  0  0  0  0
   -1.5993    1.5582    0.1493 N   0  0  0  0  0  0  0  0  0  0  0  0
   -0.2457    1.4323    0.1853 C   0  0  0  0  0  0  0  0  0  0  0  0
    3.2844   -1.2268   -0.0381 H   0  0  0  0  0  0  0  0  0  0  0  0
    2.2860    0.6996   -0.7286 H   0  0  0  0  0  0  0  0  0  0  0  0
    2.2157    0.4559    1.0625 H   0  0  0  0  0  0  0  0  0  0  0  0
   -0.0641   -1.9402   -0.2665 H   0  0  0  0  0  0  0  0  0  0  0  0
   -2.5085   -1.6476   -0.3226 H   0  0  0  0  0  0  0  0  0  0  0  0
   -3.4856    0.6200   -0.0524 H   0  0  0  0  0  0  0  0  0  0  0  0
    0.3641    2.3152    0.3293 H   0  0  0  0  0  0  0  0  0  0  0  0
  1  2  1  0
  2  3  1  0
  3  4  2  0
  4  5  1  0
  5  6  2  0
  6  7  1  0
  7  8  2  0
  8  3  1  0
  1  9  1  0
  2 10  1  0
  2 11  1  0
  4 12  1  0
  5 13  1  0
  6 14  1  0
  8 15  1  0
M  END
> <ID>
HT2450

> <Class>
0.0

> <Clusters>
246

> <Fold>
4

$$$$