
     RDKit          3D

 69 71  0  0  0  0  0  0  0  0999 V2000
   -7.6283    2.6230    0.3724 C   0  0  0  0  0  0  0  0  0  0  0  0
   -6.9059    3.2505   -0.8166 C   0  0  0  0  0  0  0  0  0  0  0  0
   -5.5649    2.7734   -0.8998 O   0  0  0  0  0  0  0  0  0  0  0  0
   -4.5456    3.1702   -0.0261 C   0  0  0  0  0  0  0  0  0  0  0  0
   -4.7412    4.0804    0.8243 O   0  0  0  0  0  0  0  0  0  0  0  0
   -3.2190    2.4875   -0.0951 C   0  0  0  0  0  0  0  0  0  0  0  0
   -3.1708    1.4102    0.9049 N   0  0  0  0  0  0  0  0  0  0  0  0
   -2.0167    0.5087    0.6942 C   0  0  2  0  0  0  0  0  0  0  0  0
   -2.3528   -0.5776   -0.3756 C   0  0  0  0  0  0  0  0  0  0  0  0
   -1.1482   -1.4987   -0.6608 C   0  0  0  0  0  0  0  0  0  0  0  0
   -1.4706   -2.5075   -1.7710 C   0  0  0  0  0  0  0  0  0  0  0  0
   -2.7191   -3.3303   -1.4272 C   0  0  0  0  0  0  0  0  0  0  0  0
   -3.9209   -2.4182   -1.1533 C   0  0  0  0  0  0  0  0  0  0  0  0
   -3.6057   -1.4194   -0.0315 C   0  0  0  0  0  0  0  0  0  0  0  0
   -1.5875   -0.0985    2.0163 C   0  0  0  0  0  0  0  0  0  0  0  0
   -2.4147   -0.7350    2.7202 O   0  0  0  0  0  0  0  0  0  0  0  0
   -0.2624    0.0944    2.5113 N   0  0  0  0  0  0  0  0  0  0  0  0
    0.4989   -0.2926    3.7145 C   0  0  0  0  0  0  0  0  0  0  0  0
    1.7284    0.4927    3.3884 C   0  0  0  0  0  0  0  0  0  0  0  0
    0.9426    0.8762    2.1717 C   0  0  1  0  0  0  0  0  0  0  0  0
    1.5662    0.4050    0.8837 C   0  0  0  0  0  0  0  0  0  0  0  0
    1.7862   -0.8241    0.7036 O   0  0  0  0  0  0  0  0  0  0  0  0
    1.9201    1.3602   -0.1280 N   0  0  0  0  0  0  0  0  0  0  0  0
    2.4720    0.9748   -1.4262 C   0  0  0  0  0  0  0  0  0  0  0  0
    3.8054    0.2887   -1.2677 C   0  0  0  0  0  0  0  0  0  0  0  0
    4.0747   -0.9038   -1.9589 C   0  0  0  0  0  0  0  0  0  0  0  0
    5.3036   -1.5494   -1.8034 C   0  0  0  0  0  0  0  0  0  0  0  0
    6.2839   -1.0222   -0.9418 C   0  0  0  0  0  0  0  0  0  0  0  0
    6.0193    0.1862   -0.2702 C   0  0  0  0  0  0  0  0  0  0  0  0
    4.7977    0.8426   -0.4435 C   0  0  0  0  0  0  0  0  0  0  0  0
    7.5636   -1.7418   -0.7101 C   0  0  0  0  0  0  0  0  0  0  0  0
    7.6029   -3.0383   -0.6960 N   0  0  0  0  0  0  0  0  0  0  0  0
    8.7625   -1.0088   -0.4238 N   0  0  0  0  0  0  0  0  0  0  0  0
    9.8718   -1.6487    0.0208 O   0  0  0  0  0  0  0  0  0  0  0  0
   -8.7110    2.8540    0.3131 H   0  0  0  0  0  0  0  0  0  0  0  0
   -7.2262    3.0249    1.3244 H   0  0  0  0  0  0  0  0  0  0  0  0
   -7.4969    1.5205    0.3574 H   0  0  0  0  0  0  0  0  0  0  0  0
   -6.9198    4.3595   -0.7420 H   0  0  0  0  0  0  0  0  0  0  0  0
   -7.4373    2.9613   -1.7476 H   0  0  0  0  0  0  0  0  0  0  0  0
   -2.4062    3.2267    0.0892 H   0  0  0  0  0  0  0  0  0  0  0  0
   -3.0935    2.0896   -1.1226 H   0  0  0  0  0  0  0  0  0  0  0  0
   -3.0805    1.8785    1.8409 H   0  0  0  0  0  0  0  0  0  0  0  0
   -1.1540    1.0985    0.3089 H   0  0  0  0  0  0  0  0  0  0  0  0
   -2.5685   -0.0482   -1.3280 H   0  0  0  0  0  0  0  0  0  0  0  0
   -0.8582   -2.0513    0.2591 H   0  0  0  0  0  0  0  0  0  0  0  0
   -0.2831   -0.8847   -0.9878 H   0  0  0  0  0  0  0  0  0  0  0  0
   -1.6318   -1.9678   -2.7313 H   0  0  0  0  0  0  0  0  0  0  0  0
   -0.6052   -3.1913   -1.9045 H   0  0  0  0  0  0  0  0  0  0  0  0
   -2.9564   -4.0087   -2.2762 H   0  0  0  0  0  0  0  0  0  0  0  0
   -2.5162   -3.9609   -0.5315 H   0  0  0  0  0  0  0  0  0  0  0  0
   -4.1948   -1.8672   -2.0800 H   0  0  0  0  0  0  0  0  0  0  0  0
   -4.7930   -3.0422   -0.8573 H   0  0  0  0  0  0  0  0  0  0  0  0
   -3.4488   -1.9928    0.9056 H   0  0  0  0  0  0  0  0  0  0  0  0
   -4.4857   -0.7541    0.1101 H   0  0  0  0  0  0  0  0  0  0  0  0
    0.6822   -1.3900    3.7335 H   0  0  0  0  0  0  0  0  0  0  0  0
   -0.0063    0.0678    4.6387 H   0  0  0  0  0  0  0  0  0  0  0  0
    1.8927    1.3456    4.0833 H   0  0  0  0  0  0  0  0  0  0  0  0
    2.6176   -0.1503    3.1998 H   0  0  0  0  0  0  0  0  0  0  0  0
    0.7093    1.9652    2.1536 H   0  0  0  0  0  0  0  0  0  0  0  0
    1.7571    2.3767    0.0548 H   0  0  0  0  0  0  0  0  0  0  0  0
    2.6182    1.8861   -2.0487 H   0  0  0  0  0  0  0  0  0  0  0  0
    1.7429    0.3182   -1.9530 H   0  0  0  0  0  0  0  0  0  0  0  0
    3.3336   -1.3377   -2.6208 H   0  0  0  0  0  0  0  0  0  0  0  0
    5.4864   -2.4587   -2.3637 H   0  0  0  0  0  0  0  0  0  0  0  0
    6.7410    0.6110    0.4158 H   0  0  0  0  0  0  0  0  0  0  0  0
    4.6130    1.7656    0.0930 H   0  0  0  0  0  0  0  0  0  0  0  0
    6.7627   -3.6373   -0.8554 H   0  0  0  0  0  0  0  0  0  0  0  0
    8.7943    0.0295   -0.5329 H   0  0  0  0  0  0  0  0  0  0  0  0
   10.3969   -1.8460   -0.7977 H   0  0  0  0  0  0  0  0  0  0  0  0
  1  2  1  0
  2  3  1  0
  3  4  1  0
  4  5  2  0
  4  6  1  0
  6  7  1  0
  7  8  1  0
  8  9  1  0
  9 10  1  0
 10 11  1  0
 11 12  1  0
 12 13  1  0
 13 14  1  0
 14  9  1  0
  8 15  1  0
 15 16  2  0
 15 17  1  0
 17 18  1  0
 18 19  1  0
 19 20  1  0
 20 17  1  0
 20 21  1  0
 21 22  2  0
 21 23  1  0
 23 24  1  0
 24 25  1  0
 25 26  2  0
 26 27  1  0
 27 28  2  0
 28 29  1  0
 29 30  2  0
 30 25  1  0
 28 31  1  0
 31 32  2  3
 31 33  1  0
 33 34  1  0
  1 35  1  0
  1 36  1  0
  1 37  1  0
  2 38  1  0
  2 39  1  0
  6 40  1  0
  6 41  1  0
  7 42  1  0
  8 43  1  6
  9 44  1  0
 10 45  1  0
 10 46  1  0
 11 47  1  0
 11 48  1  0
 12 49  1  0
 12 50  1  0
 13 51  1  0
 13 52  1  0
 14 53  1  0
 14 54  1  0
 18 55  1  0
 18 56  1  0
 19 57  1  0
 19 58  1  0
 20 59  1  6
 23 60  1  0
 24 61  1  0
 24 62  1  0
 26 63  1  0
 27 64  1  0
 29 65  1  0
 30 66  1  0
 32 67  1  0
 33 68  1  0
 34 69  1  0
M  END
> <ID>
HT2201

> <Class>
0.0

> <Clusters>
233

> <Fold>
4

$$$$