
     RDKit          3D

 28 27  0  0  0  0  0  0  0  0999 V2000
    1.6728    0.0393   -2.0775 C   0  0  0  0  0  0  0  0  0  0  0  0
    0.8519    0.3404   -0.8176 C   0  0  0  0  0  0  0  0  0  0  0  0
   -0.4409   -0.5206   -0.8080 C   0  0  0  0  0  0  0  0  0  0  0  0
   -1.5220   -0.0641    0.1226 N   0  0  0  0  0  0  0  0  0  0  0  0
   -1.0335    0.0651    1.5160 C   0  0  0  0  0  0  0  0  0  0  0  0
   -2.6004   -1.0835    0.1023 C   0  0  0  0  0  0  0  0  0  0  0  0
   -2.1022    1.2272   -0.3221 C   0  0  0  0  0  0  0  0  0  0  0  0
    1.6370    0.0366    0.3377 O   0  0  0  0  0  0  0  0  0  0  0  0
    2.6808    0.8446    0.8022 C   0  0  0  0  0  0  0  0  0  0  0  0
    2.9558    1.9359    0.2338 O   0  0  0  0  0  0  0  0  0  0  0  0
    3.4326    0.4327    1.9401 N   0  0  0  0  0  0  0  0  0  0  0  0
    2.6002    0.6488   -2.0900 H   0  0  0  0  0  0  0  0  0  0  0  0
    1.0876    0.2883   -2.9884 H   0  0  0  0  0  0  0  0  0  0  0  0
    1.9536   -1.0353   -2.1078 H   0  0  0  0  0  0  0  0  0  0  0  0
    0.5993    1.4194   -0.8297 H   0  0  0  0  0  0  0  0  0  0  0  0
   -0.1411   -1.5659   -0.5619 H   0  0  0  0  0  0  0  0  0  0  0  0
   -0.8492   -0.5618   -1.8448 H   0  0  0  0  0  0  0  0  0  0  0  0
   -0.3345    0.9224    1.6240 H   0  0  0  0  0  0  0  0  0  0  0  0
   -0.5125   -0.8623    1.8430 H   0  0  0  0  0  0  0  0  0  0  0  0
   -1.8753    0.2527    2.2200 H   0  0  0  0  0  0  0  0  0  0  0  0
   -2.2256   -2.0713    0.4541 H   0  0  0  0  0  0  0  0  0  0  0  0
   -3.4480   -0.7930    0.7636 H   0  0  0  0  0  0  0  0  0  0  0  0
   -3.0060   -1.2171   -0.9260 H   0  0  0  0  0  0  0  0  0  0  0  0
   -3.0044    1.4871    0.2765 H   0  0  0  0  0  0  0  0  0  0  0  0
   -1.3902    2.0686   -0.1934 H   0  0  0  0  0  0  0  0  0  0  0  0
   -2.4044    1.1845   -1.3922 H   0  0  0  0  0  0  0  0  0  0  0  0
    3.2064   -0.4661    2.4204 H   0  0  0  0  0  0  0  0  0  0  0  0
    4.2123    1.0248    2.3031 H   0  0  0  0  0  0  0  0  0  0  0  0
  1  2  1  0
  2  3  1  0
  3  4  1  0
  4  5  1  0
  4  6  1  0
  4  7  1  0
  2  8  1  0
  8  9  1  0
  9 10  2  0
  9 11  1  0
  1 12  1  0
  1 13  1  0
  1 14  1  0
  2 15  1  0
  3 16  1  0
  3 17  1  0
  5 18  1  0
  5 19  1  0
  5 20  1  0
  6 21  1  0
  6 22  1  0
  6 23  1  0
  7 24  1  0
  7 25  1  0
  7 26  1  0
 11 27  1  0
 11 28  1  0
M  CHG  1   4   1
M  END
> <ID>
HT0277

> <Class>
0.0

> <Clusters>
4

> <Fold>
4

$$$$