
     RDKit          3D

 61 64  0  0  0  0  0  0  0  0999 V2000
    6.3309   -2.1242   -2.1167 C   0  0  0  0  0  0  0  0  0  0  0  0
    5.1511   -1.5776   -2.9133 C   0  0  0  0  0  0  0  0  0  0  0  0
    5.0358   -0.0863   -2.7435 C   0  0  0  0  0  0  0  0  0  0  0  0
    5.8545    0.6486   -3.3608 O   0  0  0  0  0  0  0  0  0  0  0  0
    3.9833    0.5407   -1.9018 C   0  0  0  0  0  0  0  0  0  0  0  0
    3.6119    1.8794   -2.1275 C   0  0  0  0  0  0  0  0  0  0  0  0
    2.6299    2.4869   -1.3427 C   0  0  0  0  0  0  0  0  0  0  0  0
    2.0016    1.7660   -0.3260 C   0  0  0  0  0  0  0  0  0  0  0  0
    0.6561    2.5091    0.6021 S   0  0  0  0  0  0  0  0  0  0  0  0
    1.2698    1.9202    2.1832 C   0  0  0  0  0  0  0  0  0  0  0  0
    1.2714    2.7702    3.2942 C   0  0  0  0  0  0  0  0  0  0  0  0
    1.6624    2.2838    4.5442 C   0  0  0  0  0  0  0  0  0  0  0  0
    2.0572    0.9513    4.6840 C   0  0  0  0  0  0  0  0  0  0  0  0
    2.0826    0.1041    3.5714 C   0  0  0  0  0  0  0  0  0  0  0  0
    1.6905    0.5823    2.3091 C   0  0  0  0  0  0  0  0  0  0  0  0
    1.8664   -0.2187    1.1196 N   0  0  0  0  0  0  0  0  0  0  0  0
    1.4298   -1.6252    1.0776 C   0  0  0  0  0  0  0  0  0  0  0  0
   -0.1001   -1.7294    1.1405 C   0  0  0  0  0  0  0  0  0  0  0  0
   -0.7628   -1.1410   -0.1171 C   0  0  0  0  0  0  0  0  0  0  0  0
   -2.2233   -1.3760   -0.1282 N   0  0  0  0  0  0  0  0  0  0  0  0
   -2.8041   -1.0707   -1.4619 C   0  0  0  0  0  0  0  0  0  0  0  0
   -3.4253    0.3369   -1.5134 C   0  0  0  0  0  0  0  0  0  0  0  0
   -4.5321    0.4972   -0.5326 N   0  0  0  0  0  0  0  0  0  0  0  0
   -5.8546    0.3134   -1.1763 C   0  0  0  0  0  0  0  0  0  0  0  0
   -6.9986    0.7684   -0.2596 C   0  0  0  0  0  0  0  0  0  0  0  0
   -8.2196    0.7343   -0.9536 O   0  0  0  0  0  0  0  0  0  0  0  0
   -4.3771   -0.3769    0.6590 C   0  0  0  0  0  0  0  0  0  0  0  0
   -2.8994   -0.6492    0.9764 C   0  0  0  0  0  0  0  0  0  0  0  0
    2.3781    0.4384   -0.0599 C   0  0  0  0  0  0  0  0  0  0  0  0
    3.3793   -0.1632   -0.8424 C   0  0  0  0  0  0  0  0  0  0  0  0
    6.4041   -3.2234   -2.2653 H   0  0  0  0  0  0  0  0  0  0  0  0
    7.2795   -1.6553   -2.4595 H   0  0  0  0  0  0  0  0  0  0  0  0
    6.1923   -1.9195   -1.0334 H   0  0  0  0  0  0  0  0  0  0  0  0
    5.2980   -1.8080   -3.9900 H   0  0  0  0  0  0  0  0  0  0  0  0
    4.2199   -2.0942   -2.5996 H   0  0  0  0  0  0  0  0  0  0  0  0
    4.0706    2.4528   -2.9235 H   0  0  0  0  0  0  0  0  0  0  0  0
    2.3410    3.5109   -1.5426 H   0  0  0  0  0  0  0  0  0  0  0  0
    0.9487    3.7988    3.1954 H   0  0  0  0  0  0  0  0  0  0  0  0
    1.6548    2.9393    5.4061 H   0  0  0  0  0  0  0  0  0  0  0  0
    2.3681    0.5805    5.6521 H   0  0  0  0  0  0  0  0  0  0  0  0
    2.4473   -0.9057    3.6948 H   0  0  0  0  0  0  0  0  0  0  0  0
    1.7855   -2.1294    0.1540 H   0  0  0  0  0  0  0  0  0  0  0  0
    1.8693   -2.1878    1.9266 H   0  0  0  0  0  0  0  0  0  0  0  0
   -0.4600   -1.2064    2.0517 H   0  0  0  0  0  0  0  0  0  0  0  0
   -0.3809   -2.8018    1.2281 H   0  0  0  0  0  0  0  0  0  0  0  0
   -0.2982   -1.6416   -0.9935 H   0  0  0  0  0  0  0  0  0  0  0  0
   -0.5464   -0.0556   -0.1978 H   0  0  0  0  0  0  0  0  0  0  0  0
   -2.0553   -1.1678   -2.2838 H   0  0  0  0  0  0  0  0  0  0  0  0
   -3.5966   -1.8214   -1.6820 H   0  0  0  0  0  0  0  0  0  0  0  0
   -3.7507    0.5526   -2.5554 H   0  0  0  0  0  0  0  0  0  0  0  0
   -2.6360    1.0849   -1.2806 H   0  0  0  0  0  0  0  0  0  0  0  0
   -6.0054   -0.7489   -1.4764 H   0  0  0  0  0  0  0  0  0  0  0  0
   -5.9131    0.9374   -2.0965 H   0  0  0  0  0  0  0  0  0  0  0  0
   -7.0784    0.0834    0.6111 H   0  0  0  0  0  0  0  0  0  0  0  0
   -6.7971    1.7972    0.1259 H   0  0  0  0  0  0  0  0  0  0  0  0
   -8.2560    1.5594   -1.5077 H   0  0  0  0  0  0  0  0  0  0  0  0
   -4.8350    0.1269    1.5375 H   0  0  0  0  0  0  0  0  0  0  0  0
   -4.8911   -1.3566    0.5163 H   0  0  0  0  0  0  0  0  0  0  0  0
   -2.4019    0.3262    1.1866 H   0  0  0  0  0  0  0  0  0  0  0  0
   -2.8501   -1.2667    1.8993 H   0  0  0  0  0  0  0  0  0  0  0  0
    3.7281   -1.1527   -0.5820 H   0  0  0  0  0  0  0  0  0  0  0  0
  1  2  1  0
  2  3  1  0
  3  4  2  0
  3  5  1  0
  5  6  2  0
  6  7  1  0
  7  8  2  0
  8  9  1  0
  9 10  1  0
 10 11  2  0
 11 12  1  0
 12 13  2  0
 13 14  1  0
 14 15  2  0
 15 10  1  0
 15 16  1  0
 16 17  1  0
 17 18  1  0
 18 19  1  0
 19 20  1  0
 20 21  1  0
 21 22  1  0
 22 23  1  0
 23 24  1  0
 24 25  1  0
 25 26  1  0
 23 27  1  0
 27 28  1  0
 28 20  1  0
 16 29  1  0
 29  8  1  0
 29 30  2  0
 30  5  1  0
  1 31  1  0
  1 32  1  0
  1 33  1  0
  2 34  1  0
  2 35  1  0
  6 36  1  0
  7 37  1  0
 11 38  1  0
 12 39  1  0
 13 40  1  0
 14 41  1  0
 17 42  1  0
 17 43  1  0
 18 44  1  0
 18 45  1  0
 19 46  1  0
 19 47  1  0
 21 48  1  0
 21 49  1  0
 22 50  1  0
 22 51  1  0
 24 52  1  0
 24 53  1  0
 25 54  1  0
 25 55  1  0
 26 56  1  0
 27 57  1  0
 27 58  1  0
 28 59  1  0
 28 60  1  0
 30 61  1  0
M  END
> <ID>
HT3809

> <Class>
0.0

> <Clusters>
276

> <Fold>
4

$$$$