
     RDKit          3D

 29 30  0  0  0  0  0  0  0  0999 V2000
   -2.2684    1.7272    0.6937 C   0  0  0  0  0  0  0  0  0  0  0  0
   -2.0025    1.1034   -0.6078 N   0  0  0  0  0  0  0  0  0  0  0  0
   -2.1262   -0.3712   -0.6258 C   0  0  0  0  0  0  0  0  0  0  0  0
   -3.5809   -0.8131   -0.4154 C   0  0  0  0  0  0  0  0  0  0  0  0
   -1.1769   -1.0938    0.3628 C   0  0  0  0  0  0  0  0  0  0  0  0
    0.2751   -0.7629    0.1187 C   0  0  0  0  0  0  0  0  0  0  0  0
    0.9056   -1.1628   -1.0892 C   0  0  0  0  0  0  0  0  0  0  0  0
    2.2591   -0.8607   -1.3242 C   0  0  0  0  0  0  0  0  0  0  0  0
    2.9515   -0.1702   -0.3351 C   0  0  0  0  0  0  0  0  0  0  0  0
    4.2722    0.2351   -0.3324 O   0  0  0  0  0  0  0  0  0  0  0  0
    4.5262    0.9079    0.9088 C   0  0  0  0  0  0  0  0  0  0  0  0
    3.2800    0.8661    1.6182 O   0  0  0  0  0  0  0  0  0  0  0  0
    2.3604    0.2059    0.8264 C   0  0  0  0  0  0  0  0  0  0  0  0
    1.0244   -0.0730    1.0993 C   0  0  0  0  0  0  0  0  0  0  0  0
   -1.5035    1.4424    1.4440 H   0  0  0  0  0  0  0  0  0  0  0  0
   -3.2823    1.4723    1.0623 H   0  0  0  0  0  0  0  0  0  0  0  0
   -2.2289    2.8305    0.5778 H   0  0  0  0  0  0  0  0  0  0  0  0
   -1.0366    1.3715   -0.9090 H   0  0  0  0  0  0  0  0  0  0  0  0
   -1.8584   -0.7071   -1.6522 H   0  0  0  0  0  0  0  0  0  0  0  0
   -3.6922   -1.8849   -0.6863 H   0  0  0  0  0  0  0  0  0  0  0  0
   -3.8911   -0.6935    0.6436 H   0  0  0  0  0  0  0  0  0  0  0  0
   -4.2584   -0.2178   -1.0638 H   0  0  0  0  0  0  0  0  0  0  0  0
   -1.3017   -2.1928    0.2478 H   0  0  0  0  0  0  0  0  0  0  0  0
   -1.4656   -0.8594    1.4099 H   0  0  0  0  0  0  0  0  0  0  0  0
    0.3504   -1.7087   -1.8413 H   0  0  0  0  0  0  0  0  0  0  0  0
    2.7476   -1.1585   -2.2426 H   0  0  0  0  0  0  0  0  0  0  0  0
    4.8248    1.9605    0.7209 H   0  0  0  0  0  0  0  0  0  0  0  0
    5.3114    0.3720    1.4823 H   0  0  0  0  0  0  0  0  0  0  0  0
    0.5845    0.2356    2.0387 H   0  0  0  0  0  0  0  0  0  0  0  0
  1  2  1  0
  2  3  1  0
  3  4  1  0
  3  5  1  0
  5  6  1  0
  6  7  2  0
  7  8  1  0
  8  9  2  0
  9 10  1  0
 10 11  1  0
 11 12  1  0
 12 13  1  0
 13  9  1  0
 13 14  2  0
 14  6  1  0
  1 15  1  0
  1 16  1  0
  1 17  1  0
  2 18  1  0
  3 19  1  0
  4 20  1  0
  4 21  1  0
  4 22  1  0
  5 23  1  0
  5 24  1  0
  7 25  1  0
  8 26  1  0
 11 27  1  0
 11 28  1  0
 14 29  1  0
M  END
> <ID>
HT2825

> <Class>
0.0

> <Clusters>
164

> <Fold>
4

$$$$