
     RDKit          3D

 30 30  0  0  0  0  0  0  0  0999 V2000
   -2.8972    1.2877   -1.3202 C   0  0  0  0  0  0  0  0  0  0  0  0
   -2.5825    0.0556   -0.4521 C   0  0  0  0  0  0  0  0  0  0  0  0
   -1.2034    0.0067    0.1339 N   0  0  0  0  0  0  0  0  0  0  0  0
   -1.0063    1.1386    1.0730 C   0  0  0  0  0  0  0  0  0  0  0  0
   -1.1153   -1.2569    0.9119 C   0  0  0  0  0  0  0  0  0  0  0  0
   -0.1747    0.0295   -0.9582 C   0  0  0  0  0  0  0  0  0  0  0  0
    1.2600   -0.2135   -0.4993 C   0  0  0  0  0  0  0  0  0  0  0  0
    1.7324   -1.5385   -0.4162 C   0  0  0  0  0  0  0  0  0  0  0  0
    3.0440   -1.8070   -0.0203 C   0  0  0  0  0  0  0  0  0  0  0  0
    3.9140   -0.7582    0.2722 C   0  0  0  0  0  0  0  0  0  0  0  0
    3.4798    0.5621    0.1520 C   0  0  0  0  0  0  0  0  0  0  0  0
    2.1669    0.8468   -0.2453 C   0  0  0  0  0  0  0  0  0  0  0  0
    1.7059    2.6976   -0.4651 Br  0  0  0  0  0  0  0  0  0  0  0  0
   -3.9587    1.2343   -1.6422 H   0  0  0  0  0  0  0  0  0  0  0  0
   -2.7742    2.2337   -0.7572 H   0  0  0  0  0  0  0  0  0  0  0  0
   -2.2816    1.3065   -2.2419 H   0  0  0  0  0  0  0  0  0  0  0  0
   -3.3470    0.0239    0.3583 H   0  0  0  0  0  0  0  0  0  0  0  0
   -2.7616   -0.8457   -1.0828 H   0  0  0  0  0  0  0  0  0  0  0  0
   -1.8292    1.1872    1.8208 H   0  0  0  0  0  0  0  0  0  0  0  0
   -0.9691    2.1105    0.5405 H   0  0  0  0  0  0  0  0  0  0  0  0
   -0.0518    1.0351    1.6346 H   0  0  0  0  0  0  0  0  0  0  0  0
   -1.1872   -2.1440    0.2440 H   0  0  0  0  0  0  0  0  0  0  0  0
   -1.9377   -1.3285    1.6594 H   0  0  0  0  0  0  0  0  0  0  0  0
   -0.1663   -1.3238    1.4870 H   0  0  0  0  0  0  0  0  0  0  0  0
   -0.2070    0.9946   -1.5021 H   0  0  0  0  0  0  0  0  0  0  0  0
   -0.4250   -0.7348   -1.7294 H   0  0  0  0  0  0  0  0  0  0  0  0
    1.0813   -2.3695   -0.6558 H   0  0  0  0  0  0  0  0  0  0  0  0
    3.3877   -2.8307    0.0536 H   0  0  0  0  0  0  0  0  0  0  0  0
    4.9313   -0.9680    0.5764 H   0  0  0  0  0  0  0  0  0  0  0  0
    4.1724    1.3687    0.3562 H   0  0  0  0  0  0  0  0  0  0  0  0
  1  2  1  0
  2  3  1  0
  3  4  1  0
  3  5  1  0
  3  6  1  0
  6  7  1  0
  7  8  2  0
  8  9  1  0
  9 10  2  0
 10 11  1  0
 11 12  2  0
 12  7  1  0
 12 13  1  0
  1 14  1  0
  1 15  1  0
  1 16  1  0
  2 17  1  0
  2 18  1  0
  4 19  1  0
  4 20  1  0
  4 21  1  0
  5 22  1  0
  5 23  1  0
  5 24  1  0
  6 25  1  0
  6 26  1  0
  8 27  1  0
  9 28  1  0
 10 29  1  0
 11 30  1  0
M  CHG  1   3   1
M  END
> <ID>
HT0303

> <Class>
0.0

> <Clusters>
164

> <Fold>
4

$$$$