
     RDKit          3D

 52 54  0  0  0  0  0  0  0  0999 V2000
   -2.3798   -1.1465    1.6377 O   0  0  0  0  0  0  0  0  0  0  0  0
   -2.7496   -0.3576    0.5254 C   0  0  0  0  0  0  0  0  0  0  0  0
   -2.1542    1.0643    0.7092 C   0  0  0  0  0  0  0  0  0  0  0  0
   -0.6076    1.0758    0.6885 C   0  0  0  0  0  0  0  0  0  0  0  0
   -0.0279   -0.0785   -0.0373 N   0  0  0  0  0  0  0  0  0  0  0  0
    1.3876    0.1706   -0.3844 C   0  0  0  0  0  0  0  0  0  0  0  0
    2.1720   -1.1512   -0.3994 C   0  0  0  0  0  0  0  0  0  0  0  0
    3.6711   -0.9362   -0.6746 C   0  0  0  0  0  0  0  0  0  0  0  0
    4.4471   -0.3777    0.4991 C   0  0  0  0  0  0  0  0  0  0  0  0
    3.8668   -0.2105    1.6077 O   0  0  0  0  0  0  0  0  0  0  0  0
    5.8913   -0.0354    0.3787 C   0  0  0  0  0  0  0  0  0  0  0  0
    6.5687    0.5532    1.4656 C   0  0  0  0  0  0  0  0  0  0  0  0
    7.9248    0.8792    1.3678 C   0  0  0  0  0  0  0  0  0  0  0  0
    8.6241    0.6230    0.1872 C   0  0  0  0  0  0  0  0  0  0  0  0
    9.9391    0.9398    0.0949 F   0  0  0  0  0  0  0  0  0  0  0  0
    7.9679    0.0406   -0.8988 C   0  0  0  0  0  0  0  0  0  0  0  0
    6.6118   -0.2883   -0.8073 C   0  0  0  0  0  0  0  0  0  0  0  0
   -0.8327   -0.4093   -1.2276 C   0  0  0  0  0  0  0  0  0  0  0  0
   -2.2011   -0.9747   -0.8038 C   0  0  0  0  0  0  0  0  0  0  0  0
   -4.2850   -0.3728    0.4763 C   0  0  0  0  0  0  0  0  0  0  0  0
   -4.9348   -1.6178    0.3869 C   0  0  0  0  0  0  0  0  0  0  0  0
   -6.3246   -1.7012    0.3362 C   0  0  0  0  0  0  0  0  0  0  0  0
   -7.1065   -0.5462    0.3785 C   0  0  0  0  0  0  0  0  0  0  0  0
   -8.8573   -0.7312    0.3073 Cl  0  0  0  0  0  0  0  0  0  0  0  0
   -6.4913    0.7202    0.4776 C   0  0  0  0  0  0  0  0  0  0  0  0
   -5.0835    0.7937    0.5281 C   0  0  0  0  0  0  0  0  0  0  0  0
   -7.3316    1.9800    0.5295 C   0  0  0  0  0  0  0  0  0  0  0  0
   -8.1704    1.9333    1.6283 F   0  0  0  0  0  0  0  0  0  0  0  0
   -6.5525    3.1201    0.6287 F   0  0  0  0  0  0  0  0  0  0  0  0
   -8.0940    2.0766   -0.6206 F   0  0  0  0  0  0  0  0  0  0  0  0
   -1.4277   -1.4092    1.5556 H   0  0  0  0  0  0  0  0  0  0  0  0
   -2.5075    1.5099    1.6652 H   0  0  0  0  0  0  0  0  0  0  0  0
   -2.5009    1.7134   -0.1257 H   0  0  0  0  0  0  0  0  0  0  0  0
   -0.2690    2.0381    0.2396 H   0  0  0  0  0  0  0  0  0  0  0  0
   -0.2405    1.0481    1.7377 H   0  0  0  0  0  0  0  0  0  0  0  0
    1.8596    0.8399    0.3693 H   0  0  0  0  0  0  0  0  0  0  0  0
    1.4744    0.6809   -1.3710 H   0  0  0  0  0  0  0  0  0  0  0  0
    1.7703   -1.8044   -1.2022 H   0  0  0  0  0  0  0  0  0  0  0  0
    2.0306   -1.6902    0.5629 H   0  0  0  0  0  0  0  0  0  0  0  0
    3.7841   -0.2581   -1.5483 H   0  0  0  0  0  0  0  0  0  0  0  0
    4.1168   -1.9177   -0.9451 H   0  0  0  0  0  0  0  0  0  0  0  0
    6.0511    0.7655    2.3924 H   0  0  0  0  0  0  0  0  0  0  0  0
    8.4327    1.3315    2.2099 H   0  0  0  0  0  0  0  0  0  0  0  0
    8.5101   -0.1578   -1.8147 H   0  0  0  0  0  0  0  0  0  0  0  0
    6.1383   -0.7420   -1.6671 H   0  0  0  0  0  0  0  0  0  0  0  0
   -0.9783    0.4979   -1.8585 H   0  0  0  0  0  0  0  0  0  0  0  0
   -0.3239   -1.1705   -1.8567 H   0  0  0  0  0  0  0  0  0  0  0  0
   -2.1196   -2.0786   -0.6929 H   0  0  0  0  0  0  0  0  0  0  0  0
   -2.9097   -0.7888   -1.6420 H   0  0  0  0  0  0  0  0  0  0  0  0
   -4.3593   -2.5347    0.3556 H   0  0  0  0  0  0  0  0  0  0  0  0
   -6.7961   -2.6733    0.2639 H   0  0  0  0  0  0  0  0  0  0  0  0
   -4.6232    1.7648    0.6110 H   0  0  0  0  0  0  0  0  0  0  0  0
  1  2  1  0
  2  3  1  0
  3  4  1  0
  4  5  1  0
  5  6  1  0
  6  7  1  0
  7  8  1  0
  8  9  1  0
  9 10  2  0
  9 11  1  0
 11 12  2  0
 12 13  1  0
 13 14  2  0
 14 15  1  0
 14 16  1  0
 16 17  2  0
 17 11  1  0
  5 18  1  0
 18 19  1  0
 19  2  1  0
  2 20  1  0
 20 21  2  0
 21 22  1  0
 22 23  2  0
 23 24  1  0
 23 25  1  0
 25 26  2  0
 26 20  1  0
 25 27  1  0
 27 28  1  0
 27 29  1  0
 27 30  1  0
  1 31  1  0
  3 32  1  0
  3 33  1  0
  4 34  1  0
  4 35  1  0
  6 36  1  0
  6 37  1  0
  7 38  1  0
  7 39  1  0
  8 40  1  0
  8 41  1  0
 12 42  1  0
 13 43  1  0
 16 44  1  0
 17 45  1  0
 18 46  1  0
 18 47  1  0
 19 48  1  0
 19 49  1  0
 21 50  1  0
 22 51  1  0
 26 52  1  0
M  END
> <ID>
HT3830

> <Class>
0.0

> <Clusters>
124

> <Fold>
4

$$$$