
     RDKit          3D

 74 76  0  0  0  0  0  0  0  0999 V2000
    1.9082   -4.7324    2.2833 C   0  0  0  0  0  0  0  0  0  0  0  0
    0.9002   -3.6062    2.4732 C   0  0  0  0  0  0  0  0  0  0  0  0
    0.9433   -2.6906    1.3221 N   0  0  0  0  0  0  0  0  0  0  0  0
   -0.1062   -1.6524    1.4065 C   0  0  2  0  0  0  0  0  0  0  0  0
   -1.4174   -2.2111    0.8157 C   0  0  0  0  0  0  0  0  0  0  0  0
   -2.5506   -1.1710    0.8430 C   0  0  2  0  0  0  0  0  0  0  0  0
   -3.7587   -1.7489    0.2473 N   0  0  0  0  0  0  0  0  0  0  0  0
   -2.1330    0.0972    0.0709 C   0  0  1  0  0  0  0  0  0  0  0  0
   -3.1616    1.0672    0.2020 O   0  0  0  0  0  0  0  0  0  0  0  0
   -3.5189    1.6266   -1.0512 C   0  0  1  0  0  0  0  0  0  0  0  0
   -4.2476    0.6637   -1.8219 O   0  0  0  0  0  0  0  0  0  0  0  0
   -5.6346    0.4848   -1.7055 C   0  0  0  0  0  0  0  0  0  0  0  0
   -6.3740    1.3354   -0.9757 C   0  0  0  0  0  0  0  0  0  0  0  0
   -5.7413    2.4628   -0.2086 C   0  0  0  0  0  0  0  0  0  0  0  0
   -4.3926    2.8724   -0.8325 C   0  0  1  0  0  0  0  0  0  0  0  0
   -3.6936    3.8606   -0.0068 N   0  0  0  0  0  0  0  0  0  0  0  0
   -6.2802   -0.6596   -2.4378 C   0  0  0  0  0  0  0  0  0  0  0  0
   -6.9743   -0.1981   -3.6387 N   0  0  0  0  0  0  0  0  0  0  0  0
   -0.8264    0.6705    0.6628 C   0  0  2  0  0  0  0  0  0  0  0  0
   -0.4322    1.8004   -0.0722 O   0  0  0  0  0  0  0  0  0  0  0  0
    0.3118   -0.3715    0.6297 C   0  0  1  0  0  0  0  0  0  0  0  0
    1.4513    0.2012    1.2591 O   0  0  0  0  0  0  0  0  0  0  0  0
    2.5653    0.2790    0.3859 C   0  0  1  0  0  0  0  0  0  0  0  0
    2.3451    1.3089   -0.5642 O   0  0  0  0  0  0  0  0  0  0  0  0
    3.5201    1.7957   -1.2038 C   0  0  0  0  0  0  0  0  0  0  0  0
    4.7778    0.8856   -1.1339 C   0  0  2  0  0  0  0  0  0  0  0  0
    5.9243    1.6497   -1.8447 C   0  0  0  0  0  0  0  0  0  0  0  0
    4.4828   -0.3001   -1.8391 O   0  0  0  0  0  0  0  0  0  0  0  0
    5.1258    0.5794    0.3721 C   0  0  2  0  0  0  0  0  0  0  0  0
    5.8970   -0.6823    0.5237 N   0  0  0  0  0  0  0  0  0  0  0  0
    7.3139   -0.5546    0.1555 C   0  0  0  0  0  0  0  0  0  0  0  0
    3.8265    0.5069    1.2422 C   0  0  1  0  0  0  0  0  0  0  0  0
    3.6870    1.6430    2.0613 O   0  0  0  0  0  0  0  0  0  0  0  0
    1.6975   -5.2797    1.3412 H   0  0  0  0  0  0  0  0  0  0  0  0
    1.8446   -5.4426    3.1346 H   0  0  0  0  0  0  0  0  0  0  0  0
    2.9386   -4.3199    2.2365 H   0  0  0  0  0  0  0  0  0  0  0  0
    1.1463   -3.0572    3.4122 H   0  0  0  0  0  0  0  0  0  0  0  0
   -0.1098   -4.0574    2.5821 H   0  0  0  0  0  0  0  0  0  0  0  0
    1.8880   -2.2442    1.3451 H   0  0  0  0  0  0  0  0  0  0  0  0
   -0.2800   -1.3633    2.4698 H   0  0  0  0  0  0  0  0  0  0  0  0
   -1.7447   -3.0966    1.3987 H   0  0  0  0  0  0  0  0  0  0  0  0
   -1.2418   -2.5475   -0.2309 H   0  0  0  0  0  0  0  0  0  0  0  0
   -2.7635   -0.9002    1.9044 H   0  0  0  0  0  0  0  0  0  0  0  0
   -4.5554   -1.0889    0.4043 H   0  0  0  0  0  0  0  0  0  0  0  0
   -4.0103   -2.6139    0.7786 H   0  0  0  0  0  0  0  0  0  0  0  0
   -1.9376   -0.2021   -0.9896 H   0  0  0  0  0  0  0  0  0  0  0  0
   -2.6161    1.9432   -1.6244 H   0  0  0  0  0  0  0  0  0  0  0  0
   -7.4418    1.1827   -0.8806 H   0  0  0  0  0  0  0  0  0  0  0  0
   -5.5969    2.1348    0.8438 H   0  0  0  0  0  0  0  0  0  0  0  0
   -6.4295    3.3346   -0.2067 H   0  0  0  0  0  0  0  0  0  0  0  0
   -4.5919    3.3282   -1.8303 H   0  0  0  0  0  0  0  0  0  0  0  0
   -3.6180    3.5105    0.9763 H   0  0  0  0  0  0  0  0  0  0  0  0
   -4.2678    4.7361    0.0211 H   0  0  0  0  0  0  0  0  0  0  0  0
   -7.0013   -1.1795   -1.7697 H   0  0  0  0  0  0  0  0  0  0  0  0
   -5.5022   -1.3968   -2.7289 H   0  0  0  0  0  0  0  0  0  0  0  0
   -6.2928    0.3122   -4.2454 H   0  0  0  0  0  0  0  0  0  0  0  0
   -7.7222    0.4771   -3.3597 H   0  0  0  0  0  0  0  0  0  0  0  0
   -1.0047    0.9537    1.7285 H   0  0  0  0  0  0  0  0  0  0  0  0
   -0.8909    2.5832    0.3283 H   0  0  0  0  0  0  0  0  0  0  0  0
    0.4851   -0.6532   -0.4392 H   0  0  0  0  0  0  0  0  0  0  0  0
    2.6991   -0.6898   -0.1473 H   0  0  0  0  0  0  0  0  0  0  0  0
    3.2653    1.9688   -2.2718 H   0  0  0  0  0  0  0  0  0  0  0  0
    3.7571    2.7966   -0.7831 H   0  0  0  0  0  0  0  0  0  0  0  0
    6.8400    1.0409   -1.9458 H   0  0  0  0  0  0  0  0  0  0  0  0
    6.1812    2.5794   -1.2932 H   0  0  0  0  0  0  0  0  0  0  0  0
    5.6175    1.9306   -2.8755 H   0  0  0  0  0  0  0  0  0  0  0  0
    5.3262   -0.8006   -1.9868 H   0  0  0  0  0  0  0  0  0  0  0  0
    5.7278    1.4251    0.7797 H   0  0  0  0  0  0  0  0  0  0  0  0
    5.9013   -0.9559    1.5343 H   0  0  0  0  0  0  0  0  0  0  0  0
    7.4523   -0.8229   -0.9106 H   0  0  0  0  0  0  0  0  0  0  0  0
    7.9226   -1.2802    0.7385 H   0  0  0  0  0  0  0  0  0  0  0  0
    7.7158    0.4622    0.3557 H   0  0  0  0  0  0  0  0  0  0  0  0
    3.8776   -0.3603    1.9352 H   0  0  0  0  0  0  0  0  0  0  0  0
    3.5985    2.4404    1.4784 H   0  0  0  0  0  0  0  0  0  0  0  0
  1  2  1  0
  2  3  1  0
  4  3  1  0
  4  5  1  0
  5  6  1  0
  6  7  1  0
  6  8  1  0
  8  9  1  0
 10  9  1  0
 10 11  1  0
 11 12  1  0
 12 13  2  0
 13 14  1  0
 14 15  1  0
 15 10  1  0
 15 16  1  0
 12 17  1  0
 17 18  1  0
  8 19  1  0
 19 20  1  0
 19 21  1  0
 21  4  1  0
 21 22  1  0
 23 22  1  0
 23 24  1  0
 24 25  1  0
 25 26  1  0
 26 27  1  0
 26 28  1  6
 26 29  1  0
 29 30  1  0
 30 31  1  0
 29 32  1  0
 32 23  1  0
 32 33  1  0
  1 34  1  0
  1 35  1  0
  1 36  1  0
  2 37  1  0
  2 38  1  0
  3 39  1  0
  4 40  1  1
  5 41  1  0
  5 42  1  0
  6 43  1  1
  7 44  1  0
  7 45  1  0
  8 46  1  6
 10 47  1  6
 13 48  1  0
 14 49  1  0
 14 50  1  0
 15 51  1  6
 16 52  1  0
 16 53  1  0
 17 54  1  0
 17 55  1  0
 18 56  1  0
 18 57  1  0
 19 58  1  1
 20 59  1  0
 21 60  1  6
 23 61  1  6
 25 62  1  0
 25 63  1  0
 27 64  1  0
 27 65  1  0
 27 66  1  0
 28 67  1  0
 29 68  1  1
 30 69  1  0
 31 70  1  0
 31 71  1  0
 31 72  1  0
 32 73  1  1
 33 74  1  0
M  END
> <ID>
HT1478

> <Class>
0.0

> <Clusters>
277

> <Fold>
4

$$$$