
     RDKit          3D

 46 48  0  0  0  0  0  0  0  0999 V2000
    3.4939   -0.3847    3.9627 C   0  0  0  0  0  0  0  0  0  0  0  0
    3.0525   -1.5091    3.0313 C   0  0  0  0  0  0  0  0  0  0  0  0
    2.2146   -1.0077    1.9896 O   0  0  0  0  0  0  0  0  0  0  0  0
    2.6385   -0.2331    0.8956 C   0  0  0  0  0  0  0  0  0  0  0  0
    4.0011   -0.0199    0.6065 C   0  0  0  0  0  0  0  0  0  0  0  0
    4.3757    0.7526   -0.4936 C   0  0  0  0  0  0  0  0  0  0  0  0
    3.4017    1.3147   -1.3170 C   0  0  0  0  0  0  0  0  0  0  0  0
    2.0480    1.1077   -1.0454 C   0  0  0  0  0  0  0  0  0  0  0  0
    1.6545    0.3303    0.0645 C   0  0  0  0  0  0  0  0  0  0  0  0
    0.3082    0.0830    0.3925 O   0  0  0  0  0  0  0  0  0  0  0  0
   -0.8581    0.5803   -0.2750 C   0  0  0  0  0  0  0  0  0  0  0  0
   -1.4346   -0.4832   -1.2406 C   0  0  0  0  0  0  0  0  0  0  0  0
   -0.4234   -0.8521   -2.3553 C   0  0  0  0  0  0  0  0  0  0  0  0
   -0.9538   -1.8893   -3.2576 N   0  0  0  0  0  0  0  0  0  0  0  0
   -2.4236   -1.9186   -3.3052 C   0  0  0  0  0  0  0  0  0  0  0  0
   -3.0164   -0.5289   -3.0337 C   0  0  0  0  0  0  0  0  0  0  0  0
   -2.6740   -0.0042   -1.7589 O   0  0  0  0  0  0  0  0  0  0  0  0
   -1.8823    0.9375    0.7822 C   0  0  0  0  0  0  0  0  0  0  0  0
   -2.2484    0.0014    1.7678 C   0  0  0  0  0  0  0  0  0  0  0  0
   -3.1960    0.3329    2.7408 C   0  0  0  0  0  0  0  0  0  0  0  0
   -3.7864    1.5989    2.7410 C   0  0  0  0  0  0  0  0  0  0  0  0
   -3.4298    2.5363    1.7685 C   0  0  0  0  0  0  0  0  0  0  0  0
   -2.4823    2.2101    0.7933 C   0  0  0  0  0  0  0  0  0  0  0  0
    2.6031    0.1239    4.3883 H   0  0  0  0  0  0  0  0  0  0  0  0
    4.1087    0.3608    3.4184 H   0  0  0  0  0  0  0  0  0  0  0  0
    4.0985   -0.8051    4.7936 H   0  0  0  0  0  0  0  0  0  0  0  0
    3.9275   -2.0483    2.6112 H   0  0  0  0  0  0  0  0  0  0  0  0
    2.4663   -2.2413    3.6255 H   0  0  0  0  0  0  0  0  0  0  0  0
    4.7803   -0.4501    1.2189 H   0  0  0  0  0  0  0  0  0  0  0  0
    5.4240    0.9124   -0.7105 H   0  0  0  0  0  0  0  0  0  0  0  0
    3.6966    1.9094   -2.1721 H   0  0  0  0  0  0  0  0  0  0  0  0
    1.3307    1.5501   -1.7178 H   0  0  0  0  0  0  0  0  0  0  0  0
   -0.6265    1.4989   -0.8502 H   0  0  0  0  0  0  0  0  0  0  0  0
   -1.6364   -1.4069   -0.6531 H   0  0  0  0  0  0  0  0  0  0  0  0
   -0.1903    0.0528   -2.9562 H   0  0  0  0  0  0  0  0  0  0  0  0
    0.5270   -1.2143   -1.9079 H   0  0  0  0  0  0  0  0  0  0  0  0
   -0.6227   -2.8258   -2.9253 H   0  0  0  0  0  0  0  0  0  0  0  0
   -2.7440   -2.2638   -4.3110 H   0  0  0  0  0  0  0  0  0  0  0  0
   -2.8215   -2.6370   -2.5530 H   0  0  0  0  0  0  0  0  0  0  0  0
   -2.6787    0.1795   -3.8209 H   0  0  0  0  0  0  0  0  0  0  0  0
   -4.1228   -0.5949   -3.1002 H   0  0  0  0  0  0  0  0  0  0  0  0
   -1.7977   -0.9831    1.7846 H   0  0  0  0  0  0  0  0  0  0  0  0
   -3.4720   -0.3921    3.4955 H   0  0  0  0  0  0  0  0  0  0  0  0
   -4.5199    1.8537    3.4949 H   0  0  0  0  0  0  0  0  0  0  0  0
   -3.8884    3.5167    1.7698 H   0  0  0  0  0  0  0  0  0  0  0  0
   -2.2215    2.9493    0.0462 H   0  0  0  0  0  0  0  0  0  0  0  0
  1  2  1  0
  2  3  1  0
  3  4  1  0
  4  5  2  0
  5  6  1  0
  6  7  2  0
  7  8  1  0
  8  9  2  0
  9  4  1  0
  9 10  1  0
 10 11  1  0
 11 12  1  0
 12 13  1  0
 13 14  1  0
 14 15  1  0
 15 16  1  0
 16 17  1  0
 17 12  1  0
 11 18  1  0
 18 19  2  0
 19 20  1  0
 20 21  2  0
 21 22  1  0
 22 23  2  0
 23 18  1  0
  1 24  1  0
  1 25  1  0
  1 26  1  0
  2 27  1  0
  2 28  1  0
  5 29  1  0
  6 30  1  0
  7 31  1  0
  8 32  1  0
 11 33  1  0
 12 34  1  0
 13 35  1  0
 13 36  1  0
 14 37  1  0
 15 38  1  0
 15 39  1  0
 16 40  1  0
 16 41  1  0
 19 42  1  0
 20 43  1  0
 21 44  1  0
 22 45  1  0
 23 46  1  0
M  END
> <ID>
HT1804

> <Class>
0.0

> <Clusters>
23

> <Fold>
4

$$$$