
     RDKit          3D

 72 75  0  0  0  0  0  0  0  0999 V2000
   -5.3084    2.2504   -0.3748 O   0  0  0  0  0  0  0  0  0  0  0  0
   -4.3785    1.4982    0.0207 C   0  0  0  0  0  0  0  0  0  0  0  0
   -3.0777    1.9204   -0.0157 N   0  0  0  0  0  0  0  0  0  0  0  0
   -4.6347    0.2259    0.5202 C   0  0  0  0  0  0  0  0  0  0  0  0
   -3.6113   -0.5361    0.9693 C   0  0  0  0  0  0  0  0  0  0  0  0
   -5.7924   -0.4358    0.7194 N   0  0  0  0  0  0  0  0  0  0  0  0
   -2.3246   -0.1196    0.9516 N   0  0  0  0  0  0  0  0  0  0  0  0
   -4.1750   -1.6946    1.4525 C   0  0  0  0  0  0  0  0  0  0  0  0
   -5.5214   -1.6008    1.3028 N   0  0  0  0  0  0  0  0  0  0  0  0
   -7.1429    0.0317    0.4317 C   0  0  0  0  0  0  0  0  0  0  0  0
   -2.0521    1.1185    0.4360 C   0  0  0  0  0  0  0  0  0  0  0  0
   -3.4652   -2.8096    2.1682 C   0  0  0  0  0  0  0  0  0  0  0  0
   -0.6530    1.5893    0.3826 C   0  0  0  0  0  0  0  0  0  0  0  0
   -4.0093   -4.1932    1.7829 C   0  0  0  0  0  0  0  0  0  0  0  0
    0.1645    1.4377    1.5139 C   0  0  0  0  0  0  0  0  0  0  0  0
   -0.1243    2.1624   -0.7936 C   0  0  0  0  0  0  0  0  0  0  0  0
   -3.7581   -4.5225    0.3113 C   0  0  0  0  0  0  0  0  0  0  0  0
    1.4906    1.8857    1.4976 C   0  0  0  0  0  0  0  0  0  0  0  0
   -0.9339    2.2303   -1.9388 O   0  0  0  0  0  0  0  0  0  0  0  0
    1.2084    2.6190   -0.7980 C   0  0  0  0  0  0  0  0  0  0  0  0
    2.0070    2.4779    0.3393 C   0  0  0  0  0  0  0  0  0  0  0  0
    2.5270    1.6722    2.9053 S   0  0  0  0  0  0  0  0  0  0  0  0
   -0.5315    2.7781   -3.1922 C   0  0  0  0  0  0  0  0  0  0  0  0
    3.2007    2.9774    3.2224 O   0  0  0  0  0  0  0  0  0  0  0  0
    1.7135    1.2476    4.0964 O   0  0  0  0  0  0  0  0  0  0  0  0
    3.7317    0.4721    2.5571 N   0  0  0  0  0  0  0  0  0  0  0  0
   -1.6639    2.6329   -4.2083 C   0  0  0  0  0  0  0  0  0  0  0  0
    3.1084   -0.8453    2.3966 C   0  0  0  0  0  0  0  0  0  0  0  0
   -2.8870    3.4603   -3.8191 C   0  0  0  0  0  0  0  0  0  0  0  0
    3.9951   -1.7600    1.5410 C   0  0  0  0  0  0  0  0  0  0  0  0
    4.1369   -1.2466    0.0826 C   0  0  0  0  0  0  0  0  0  0  0  0
    4.6323   -2.3139   -0.8860 C   0  0  0  0  0  0  0  0  0  0  0  0
    4.9985   -0.0583   -0.1105 N   0  0  0  0  0  0  0  0  0  0  0  0
    5.2455   -1.5205   -2.0298 C   0  0  0  0  0  0  0  0  0  0  0  0
    5.2482   -0.0637   -1.5614 C   0  0  0  0  0  0  0  0  0  0  0  0
    6.2900   -0.1345    0.6085 C   0  0  0  0  0  0  0  0  0  0  0  0
   -2.8689    2.8828   -0.3620 H   0  0  0  0  0  0  0  0  0  0  0  0
   -7.3845    0.8952    1.0852 H   0  0  0  0  0  0  0  0  0  0  0  0
   -7.8765   -0.7790    0.6195 H   0  0  0  0  0  0  0  0  0  0  0  0
   -7.2165    0.3392   -0.6322 H   0  0  0  0  0  0  0  0  0  0  0  0
   -3.5949   -2.6601    3.2629 H   0  0  0  0  0  0  0  0  0  0  0  0
   -2.3757   -2.7672    1.9502 H   0  0  0  0  0  0  0  0  0  0  0  0
   -3.5034   -4.9568    2.4080 H   0  0  0  0  0  0  0  0  0  0  0  0
   -5.1003   -4.2501    1.9975 H   0  0  0  0  0  0  0  0  0  0  0  0
   -0.2377    0.9788    2.4088 H   0  0  0  0  0  0  0  0  0  0  0  0
   -2.6794   -4.4216    0.0689 H   0  0  0  0  0  0  0  0  0  0  0  0
   -4.3451   -3.8471   -0.3465 H   0  0  0  0  0  0  0  0  0  0  0  0
   -4.0728   -5.5657    0.1033 H   0  0  0  0  0  0  0  0  0  0  0  0
    1.6432    3.0708   -1.6809 H   0  0  0  0  0  0  0  0  0  0  0  0
    3.0342    2.8193    0.3105 H   0  0  0  0  0  0  0  0  0  0  0  0
    0.3569    2.2258   -3.5707 H   0  0  0  0  0  0  0  0  0  0  0  0
   -0.2682    3.8506   -3.0692 H   0  0  0  0  0  0  0  0  0  0  0  0
    4.3757    0.4318    3.3806 H   0  0  0  0  0  0  0  0  0  0  0  0
   -1.9533    1.5636   -4.2871 H   0  0  0  0  0  0  0  0  0  0  0  0
   -1.3040    2.9684   -5.2052 H   0  0  0  0  0  0  0  0  0  0  0  0
    2.9523   -1.3146    3.3947 H   0  0  0  0  0  0  0  0  0  0  0  0
    2.1152   -0.7679    1.9044 H   0  0  0  0  0  0  0  0  0  0  0  0
   -2.6213    4.5373   -3.7627 H   0  0  0  0  0  0  0  0  0  0  0  0
   -3.6810    3.3287   -4.5847 H   0  0  0  0  0  0  0  0  0  0  0  0
   -3.2876    3.1329   -2.8371 H   0  0  0  0  0  0  0  0  0  0  0  0
    4.9772   -1.9252    2.0302 H   0  0  0  0  0  0  0  0  0  0  0  0
    3.4973   -2.7550    1.5090 H   0  0  0  0  0  0  0  0  0  0  0  0
    3.1102   -0.9711   -0.2592 H   0  0  0  0  0  0  0  0  0  0  0  0
    3.7955   -2.9576   -1.2360 H   0  0  0  0  0  0  0  0  0  0  0  0
    5.4081   -2.9529   -0.4074 H   0  0  0  0  0  0  0  0  0  0  0  0
    6.2849   -1.8677   -2.2225 H   0  0  0  0  0  0  0  0  0  0  0  0
    4.6417   -1.6292   -2.9576 H   0  0  0  0  0  0  0  0  0  0  0  0
    6.1973    0.4469   -1.8461 H   0  0  0  0  0  0  0  0  0  0  0  0
    4.4201    0.4854   -2.0640 H   0  0  0  0  0  0  0  0  0  0  0  0
    6.9555    0.6990    0.2969 H   0  0  0  0  0  0  0  0  0  0  0  0
    6.8127   -1.0984    0.4221 H   0  0  0  0  0  0  0  0  0  0  0  0
    6.1400   -0.0024    1.6966 H   0  0  0  0  0  0  0  0  0  0  0  0
  1  2  2  0
  2  3  1  0
  2  4  1  0
  4  5  2  0
  6  4  1  0
  5  7  1  0
  5  8  1  0
  9  6  1  0
  6 10  1  0
  7 11  2  0
  8 12  1  0
  8  9  2  0
 13 11  1  0
 11  3  1  0
 12 14  1  0
 15 13  2  0
 13 16  1  0
 14 17  1  0
 18 15  1  0
 19 16  1  0
 16 20  2  0
 21 18  2  0
 18 22  1  0
 23 19  1  0
 20 21  1  0
 22 24  2  0
 22 25  2  0
 22 26  1  0
 27 23  1  0
 26 28  1  0
 29 27  1  0
 28 30  1  0
 30 31  1  0
 31 32  1  0
 33 31  1  0
 32 34  1  0
 35 33  1  0
 33 36  1  0
 34 35  1  0
  3 37  1  0
 10 38  1  0
 10 39  1  0
 10 40  1  0
 12 41  1  0
 12 42  1  0
 14 43  1  0
 14 44  1  0
 15 45  1  0
 17 46  1  0
 17 47  1  0
 17 48  1  0
 20 49  1  0
 21 50  1  0
 23 51  1  0
 23 52  1  0
 26 53  1  0
 27 54  1  0
 27 55  1  0
 28 56  1  0
 28 57  1  0
 29 58  1  0
 29 59  1  0
 29 60  1  0
 30 61  1  0
 30 62  1  0
 31 63  1  0
 32 64  1  0
 32 65  1  0
 34 66  1  0
 34 67  1  0
 35 68  1  0
 35 69  1  0
 36 70  1  0
 36 71  1  0
 36 72  1  0
M  END
> <ID>
HT2149

> <Class>
0.0

> <Clusters>
215

> <Fold>
4

$$$$