
     RDKit          3D

 66 69  0  0  0  0  0  0  0  0999 V2000
   -2.7598   -2.7264    2.7792 O   0  0  0  0  0  0  0  0  0  0  0  0
   -2.7003   -1.8266    1.8979 C   0  0  0  0  0  0  0  0  0  0  0  0
   -1.6585   -1.7827    1.0159 N   0  0  0  0  0  0  0  0  0  0  0  0
   -3.6865   -0.8526    1.7872 C   0  0  0  0  0  0  0  0  0  0  0  0
   -4.8524   -0.6163    2.4906 C   0  0  0  0  0  0  0  0  0  0  0  0
   -3.5794    0.0812    0.8453 N   0  0  0  0  0  0  0  0  0  0  0  0
   -5.4662    0.4789    1.9733 N   0  0  0  0  0  0  0  0  0  0  0  0
   -5.3810   -1.4011    3.6465 C   0  0  0  0  0  0  0  0  0  0  0  0
   -2.5742    0.1367   -0.0237 N   0  0  0  0  0  0  0  0  0  0  0  0
   -4.6523    0.8823    0.9646 C   0  0  0  0  0  0  0  0  0  0  0  0
   -1.5941   -0.8116    0.0447 C   0  0  0  0  0  0  0  0  0  0  0  0
   -4.9303    2.0747    0.0951 C   0  0  0  0  0  0  0  0  0  0  0  0
   -0.4819   -0.7811   -0.9289 C   0  0  0  0  0  0  0  0  0  0  0  0
   -5.0367    3.3675    0.9154 C   0  0  0  0  0  0  0  0  0  0  0  0
    0.1446    0.4429   -1.2151 C   0  0  0  0  0  0  0  0  0  0  0  0
   -0.0614   -1.9536   -1.5920 C   0  0  0  0  0  0  0  0  0  0  0  0
   -3.7161    3.7385    1.5904 C   0  0  0  0  0  0  0  0  0  0  0  0
    1.2194    0.5014   -2.1112 C   0  0  0  0  0  0  0  0  0  0  0  0
    1.0051   -1.8809   -2.5087 C   0  0  0  0  0  0  0  0  0  0  0  0
   -0.7369   -3.1596   -1.3414 O   0  0  0  0  0  0  0  0  0  0  0  0
    1.6333   -0.6620   -2.7690 C   0  0  0  0  0  0  0  0  0  0  0  0
    2.0207    2.0379   -2.4392 S   0  0  0  0  0  0  0  0  0  0  0  0
   -0.4281   -4.4074   -1.9537 C   0  0  0  0  0  0  0  0  0  0  0  0
    1.0274    3.1519   -2.2526 O   0  0  0  0  0  0  0  0  0  0  0  0
    2.4567    2.0550   -3.8784 O   0  0  0  0  0  0  0  0  0  0  0  0
    3.4102    2.3336   -1.4144 N   0  0  0  0  0  0  0  0  0  0  0  0
   -1.3794   -5.4722   -1.4328 C   0  0  0  0  0  0  0  0  0  0  0  0
    3.0773    2.5275    0.0081 C   0  0  0  0  0  0  0  0  0  0  0  0
    4.5468    1.4277   -1.6648 C   0  0  0  0  0  0  0  0  0  0  0  0
    3.0412    1.2126    0.7998 C   0  0  0  0  0  0  0  0  0  0  0  0
    4.5291    0.1559   -0.7945 C   0  0  0  0  0  0  0  0  0  0  0  0
    4.2789    0.4318    0.6334 N   0  0  0  0  0  0  0  0  0  0  0  0
    5.4369    1.0287    1.3372 C   0  0  0  0  0  0  0  0  0  0  0  0
    6.4202   -0.0567    1.7658 C   0  0  0  0  0  0  0  0  0  0  0  0
   -0.8931   -2.4892    1.1023 H   0  0  0  0  0  0  0  0  0  0  0  0
   -6.3563   -0.9857    3.9780 H   0  0  0  0  0  0  0  0  0  0  0  0
   -5.5248   -2.4594    3.3451 H   0  0  0  0  0  0  0  0  0  0  0  0
   -4.6626   -1.3492    4.4907 H   0  0  0  0  0  0  0  0  0  0  0  0
   -5.8925    1.9040   -0.4337 H   0  0  0  0  0  0  0  0  0  0  0  0
   -4.1376    2.1876   -0.6760 H   0  0  0  0  0  0  0  0  0  0  0  0
   -5.3314    4.1953    0.2354 H   0  0  0  0  0  0  0  0  0  0  0  0
   -5.8331    3.2647    1.6857 H   0  0  0  0  0  0  0  0  0  0  0  0
   -0.1802    1.3451   -0.7101 H   0  0  0  0  0  0  0  0  0  0  0  0
   -2.9081    3.8442    0.8333 H   0  0  0  0  0  0  0  0  0  0  0  0
   -3.4270    2.9617    2.3315 H   0  0  0  0  0  0  0  0  0  0  0  0
   -3.8353    4.7052    2.1252 H   0  0  0  0  0  0  0  0  0  0  0  0
    1.3522   -2.7611   -3.0321 H   0  0  0  0  0  0  0  0  0  0  0  0
    2.4531   -0.6287   -3.4755 H   0  0  0  0  0  0  0  0  0  0  0  0
    0.6162   -4.6992   -1.7088 H   0  0  0  0  0  0  0  0  0  0  0  0
   -0.5440   -4.3250   -3.0558 H   0  0  0  0  0  0  0  0  0  0  0  0
   -2.4273   -5.1954   -1.6749 H   0  0  0  0  0  0  0  0  0  0  0  0
   -1.2730   -5.5686   -0.3316 H   0  0  0  0  0  0  0  0  0  0  0  0
   -1.1456   -6.4492   -1.9052 H   0  0  0  0  0  0  0  0  0  0  0  0
    2.1013    3.0464    0.1169 H   0  0  0  0  0  0  0  0  0  0  0  0
    3.8385    3.1983    0.4593 H   0  0  0  0  0  0  0  0  0  0  0  0
    5.4873    1.9872   -1.4821 H   0  0  0  0  0  0  0  0  0  0  0  0
    4.5837    1.1300   -2.7345 H   0  0  0  0  0  0  0  0  0  0  0  0
    2.8627    1.4337    1.8748 H   0  0  0  0  0  0  0  0  0  0  0  0
    2.1804    0.5966    0.4768 H   0  0  0  0  0  0  0  0  0  0  0  0
    3.7481   -0.5372   -1.1633 H   0  0  0  0  0  0  0  0  0  0  0  0
    5.4914   -0.3824   -0.9251 H   0  0  0  0  0  0  0  0  0  0  0  0
    5.1075    1.5494    2.2639 H   0  0  0  0  0  0  0  0  0  0  0  0
    5.9626    1.7795    0.7126 H   0  0  0  0  0  0  0  0  0  0  0  0
    6.9124   -0.5139    0.8831 H   0  0  0  0  0  0  0  0  0  0  0  0
    7.2076    0.3880    2.4112 H   0  0  0  0  0  0  0  0  0  0  0  0
    5.8947   -0.8489    2.3411 H   0  0  0  0  0  0  0  0  0  0  0  0
  1  2  2  0
  2  3  1  0
  4  2  1  0
  5  4  2  0
  6  4  1  0
  7  5  1  0
  5  8  1  0
  9  6  1  0
  6 10  1  0
 10  7  2  0
 11  9  2  0
 12 10  1  0
  3 11  1  0
 11 13  1  0
 14 12  1  0
 13 15  2  0
 16 13  1  0
 17 14  1  0
 15 18  1  0
 19 16  2  0
 16 20  1  0
 18 21  2  0
 18 22  1  0
 21 19  1  0
 20 23  1  0
 22 24  2  0
 22 25  2  0
 22 26  1  0
 23 27  1  0
 26 28  1  0
 29 26  1  0
 28 30  1  0
 31 29  1  0
 30 32  1  0
 32 31  1  0
 32 33  1  0
 33 34  1  0
  3 35  1  0
  8 36  1  0
  8 37  1  0
  8 38  1  0
 12 39  1  0
 12 40  1  0
 14 41  1  0
 14 42  1  0
 15 43  1  0
 17 44  1  0
 17 45  1  0
 17 46  1  0
 19 47  1  0
 21 48  1  0
 23 49  1  0
 23 50  1  0
 27 51  1  0
 27 52  1  0
 27 53  1  0
 28 54  1  0
 28 55  1  0
 29 56  1  0
 29 57  1  0
 30 58  1  0
 30 59  1  0
 31 60  1  0
 31 61  1  0
 33 62  1  0
 33 63  1  0
 34 64  1  0
 34 65  1  0
 34 66  1  0
M  END
> <ID>
HT2168

> <Class>
0.0

> <Clusters>
215

> <Fold>
4

$$$$