
     RDKit          3D

 59 62  0  0  0  0  0  0  0  0999 V2000
    5.6017    0.8595    2.9319 C   0  0  0  0  0  0  0  0  0  0  0  0
    5.7364    1.1057    1.4677 C   0  0  0  0  0  0  0  0  0  0  0  0
    6.8773    1.1032    0.9299 O   0  0  0  0  0  0  0  0  0  0  0  0
    4.5883    1.3343    0.7064 O   0  0  0  0  0  0  0  0  0  0  0  0
    4.6272    1.5572   -0.6986 C   0  0  0  0  0  0  0  0  0  0  0  0
    3.2257    1.7154   -1.2229 C   0  0  0  0  0  0  0  0  0  0  0  0
    2.8476    2.8377   -1.5254 O   0  0  0  0  0  0  0  0  0  0  0  0
    2.2694    0.5370   -1.4433 C   0  0  1  0  0  0  0  0  0  0  0  0
    1.9710    0.4746   -2.8217 O   0  0  0  0  0  0  0  0  0  0  0  0
    2.8090   -0.8583   -0.9901 C   0  0  0  0  0  0  0  0  0  0  0  0
    1.6019   -1.6566   -0.4627 C   0  0  0  0  0  0  0  0  0  0  0  0
    0.3988   -0.7653   -0.7456 C   0  0  1  0  0  0  0  0  0  0  0  0
   -0.9065   -0.9975    0.0490 C   0  0  2  0  0  0  0  0  0  0  0  0
   -1.3575   -2.4688   -0.0919 C   0  0  0  0  0  0  0  0  0  0  0  0
   -2.6930   -2.7158    0.6052 C   0  0  0  0  0  0  0  0  0  0  0  0
   -3.7253   -1.7594    0.0660 C   0  0  0  0  0  0  0  0  0  0  0  0
   -4.8476   -2.2432   -0.4902 C   0  0  0  0  0  0  0  0  0  0  0  0
   -5.8339   -1.3478   -1.0921 C   0  0  0  0  0  0  0  0  0  0  0  0
   -6.8913   -1.8135   -1.5925 O   0  0  0  0  0  0  0  0  0  0  0  0
   -5.5783    0.0894   -1.1215 C   0  0  0  0  0  0  0  0  0  0  0  0
   -4.4708    0.5925   -0.5756 C   0  0  0  0  0  0  0  0  0  0  0  0
   -3.4231   -0.2540    0.1501 C   0  0  1  0  0  0  0  0  0  0  0  0
   -3.4796    0.1526    1.6428 C   0  0  0  0  0  0  0  0  0  0  0  0
   -2.0064   -0.0243   -0.5115 C   0  0  1  0  0  0  0  0  0  0  0  0
   -1.5223    1.4689   -0.5788 C   0  0  1  0  0  0  0  0  0  0  0  0
   -1.5262    2.0637    0.6912 O   0  0  0  0  0  0  0  0  0  0  0  0
   -0.1228    1.6229   -1.2400 C   0  0  0  0  0  0  0  0  0  0  0  0
    0.9395    0.6670   -0.6317 C   0  0  2  0  0  0  0  0  0  0  0  0
    1.2634    1.0859    0.8437 C   0  0  0  0  0  0  0  0  0  0  0  0
    6.5974    0.6928    3.3953 H   0  0  0  0  0  0  0  0  0  0  0  0
    4.9700   -0.0378    3.0984 H   0  0  0  0  0  0  0  0  0  0  0  0
    5.1215    1.7375    3.4115 H   0  0  0  0  0  0  0  0  0  0  0  0
    5.2114    2.4818   -0.9013 H   0  0  0  0  0  0  0  0  0  0  0  0
    5.1322    0.7131   -1.2155 H   0  0  0  0  0  0  0  0  0  0  0  0
    2.8255    0.3531   -3.3142 H   0  0  0  0  0  0  0  0  0  0  0  0
    3.2938   -1.3985   -1.8323 H   0  0  0  0  0  0  0  0  0  0  0  0
    3.5509   -0.7850   -0.1702 H   0  0  0  0  0  0  0  0  0  0  0  0
    1.5094   -2.6318   -0.9890 H   0  0  0  0  0  0  0  0  0  0  0  0
    1.7008   -1.8409    0.6298 H   0  0  0  0  0  0  0  0  0  0  0  0
    0.1390   -0.9569   -1.8160 H   0  0  0  0  0  0  0  0  0  0  0  0
   -0.7298   -0.8123    1.1254 H   0  0  0  0  0  0  0  0  0  0  0  0
   -0.5987   -3.1409    0.3639 H   0  0  0  0  0  0  0  0  0  0  0  0
   -1.4523   -2.7401   -1.1672 H   0  0  0  0  0  0  0  0  0  0  0  0
   -2.5794   -2.5670    1.6998 H   0  0  0  0  0  0  0  0  0  0  0  0
   -2.9877   -3.7767    0.4472 H   0  0  0  0  0  0  0  0  0  0  0  0
   -5.0305   -3.3108   -0.5256 H   0  0  0  0  0  0  0  0  0  0  0  0
   -6.2987    0.7527   -1.5843 H   0  0  0  0  0  0  0  0  0  0  0  0
   -4.3583    1.6690   -0.5858 H   0  0  0  0  0  0  0  0  0  0  0  0
   -3.5233    1.2535    1.7722 H   0  0  0  0  0  0  0  0  0  0  0  0
   -4.4024   -0.2525    2.1130 H   0  0  0  0  0  0  0  0  0  0  0  0
   -2.6131   -0.2309    2.2162 H   0  0  0  0  0  0  0  0  0  0  0  0
   -2.1432   -0.3152   -1.5804 H   0  0  0  0  0  0  0  0  0  0  0  0
   -2.2303    2.0254   -1.2341 H   0  0  0  0  0  0  0  0  0  0  0  0
   -1.5213    3.0470    0.5533 H   0  0  0  0  0  0  0  0  0  0  0  0
   -0.2429    1.4195   -2.3262 H   0  0  0  0  0  0  0  0  0  0  0  0
    0.2164    2.6774   -1.1519 H   0  0  0  0  0  0  0  0  0  0  0  0
    2.0893    0.4846    1.2741 H   0  0  0  0  0  0  0  0  0  0  0  0
    1.5693    2.1526    0.8831 H   0  0  0  0  0  0  0  0  0  0  0  0
    0.4125    0.9741    1.5361 H   0  0  0  0  0  0  0  0  0  0  0  0
  1  2  1  0
  2  3  2  0
  2  4  1  0
  4  5  1  0
  5  6  1  0
  6  7  2  0
  6  8  1  0
  8  9  1  6
  8 10  1  0
 10 11  1  0
 12 11  1  0
 12 13  1  0
 13 14  1  0
 14 15  1  0
 15 16  1  0
 16 17  2  0
 17 18  1  0
 18 19  2  0
 18 20  1  0
 20 21  2  0
 21 22  1  0
 22 16  1  0
 22 23  1  1
 22 24  1  0
 24 13  1  0
 24 25  1  0
 25 26  1  0
 25 27  1  0
 27 28  1  0
 28  8  1  0
 28 12  1  0
 28 29  1  1
  1 30  1  0
  1 31  1  0
  1 32  1  0
  5 33  1  0
  5 34  1  0
  9 35  1  0
 10 36  1  0
 10 37  1  0
 11 38  1  0
 11 39  1  0
 12 40  1  6
 13 41  1  1
 14 42  1  0
 14 43  1  0
 15 44  1  0
 15 45  1  0
 17 46  1  0
 20 47  1  0
 21 48  1  0
 23 49  1  0
 23 50  1  0
 23 51  1  0
 24 52  1  6
 25 53  1  6
 26 54  1  0
 27 55  1  0
 27 56  1  0
 29 57  1  0
 29 58  1  0
 29 59  1  0
M  END
> <ID>
HT1731

> <Class>
0.0

> <Clusters>
202

> <Fold>
4

$$$$