
     RDKit          3D

 35 35  0  0  0  0  0  0  0  0999 V2000
   -2.2805    1.5007   -0.6597 C   0  0  0  0  0  0  0  0  0  0  0  0
   -2.4897    0.3785    0.3803 C   0  0  0  0  0  0  0  0  0  0  0  0
   -2.9238    1.0435    1.7041 C   0  0  0  0  0  0  0  0  0  0  0  0
   -3.6240   -0.5632   -0.0861 C   0  0  0  0  0  0  0  0  0  0  0  0
   -1.2221   -0.3578    0.6307 N   0  0  0  0  0  0  0  0  0  0  0  0
   -0.7539   -1.2047   -0.4844 C   0  0  0  0  0  0  0  0  0  0  0  0
    0.6657   -1.7596   -0.2237 C   0  0  0  0  0  0  0  0  0  0  0  0
    0.6757   -2.5421    0.9460 O   0  0  0  0  0  0  0  0  0  0  0  0
    1.8041   -0.7420   -0.2079 C   0  0  0  0  0  0  0  0  0  0  0  0
    3.1148   -1.2175   -0.0187 C   0  0  0  0  0  0  0  0  0  0  0  0
    4.2029   -0.3349    0.0032 C   0  0  0  0  0  0  0  0  0  0  0  0
    5.4984   -0.8097    0.1965 O   0  0  0  0  0  0  0  0  0  0  0  0
    3.9906    1.0342   -0.1705 C   0  0  0  0  0  0  0  0  0  0  0  0
    2.6986    1.5253   -0.3710 C   0  0  0  0  0  0  0  0  0  0  0  0
    2.5055    2.8936   -0.5493 O   0  0  0  0  0  0  0  0  0  0  0  0
    1.6100    0.6423   -0.3932 C   0  0  0  0  0  0  0  0  0  0  0  0
   -1.4452    2.1649   -0.3530 H   0  0  0  0  0  0  0  0  0  0  0  0
   -3.1975    2.1226   -0.7498 H   0  0  0  0  0  0  0  0  0  0  0  0
   -2.0661    1.0963   -1.6693 H   0  0  0  0  0  0  0  0  0  0  0  0
   -3.1300    0.2752    2.4802 H   0  0  0  0  0  0  0  0  0  0  0  0
   -2.1195    1.7108    2.0827 H   0  0  0  0  0  0  0  0  0  0  0  0
   -3.8461    1.6487    1.5654 H   0  0  0  0  0  0  0  0  0  0  0  0
   -3.7254   -1.4235    0.6097 H   0  0  0  0  0  0  0  0  0  0  0  0
   -4.5942   -0.0217   -0.1176 H   0  0  0  0  0  0  0  0  0  0  0  0
   -3.4299   -0.9510   -1.1084 H   0  0  0  0  0  0  0  0  0  0  0  0
   -1.3717   -0.9870    1.4547 H   0  0  0  0  0  0  0  0  0  0  0  0
   -1.4351   -2.0753   -0.6096 H   0  0  0  0  0  0  0  0  0  0  0  0
   -0.7420   -0.6498   -1.4436 H   0  0  0  0  0  0  0  0  0  0  0  0
    0.8821   -2.4465   -1.0710 H   0  0  0  0  0  0  0  0  0  0  0  0
    0.7298   -1.9269    1.7236 H   0  0  0  0  0  0  0  0  0  0  0  0
    3.2903   -2.2784    0.1140 H   0  0  0  0  0  0  0  0  0  0  0  0
    5.6872   -1.7969    0.3255 H   0  0  0  0  0  0  0  0  0  0  0  0
    4.8308    1.7170   -0.1535 H   0  0  0  0  0  0  0  0  0  0  0  0
    1.5819    3.2840   -0.6966 H   0  0  0  0  0  0  0  0  0  0  0  0
    0.6283    1.0507   -0.5637 H   0  0  0  0  0  0  0  0  0  0  0  0
  1  2  1  0
  2  3  1  0
  2  4  1  0
  2  5  1  0
  5  6  1  0
  6  7  1  0
  7  8  1  0
  7  9  1  0
  9 10  2  0
 10 11  1  0
 11 12  1  0
 11 13  2  0
 13 14  1  0
 14 15  1  0
 14 16  2  0
 16  9  1  0
  1 17  1  0
  1 18  1  0
  1 19  1  0
  3 20  1  0
  3 21  1  0
  3 22  1  0
  4 23  1  0
  4 24  1  0
  4 25  1  0
  5 26  1  0
  6 27  1  0
  6 28  1  0
  7 29  1  0
  8 30  1  0
 10 31  1  0
 12 32  1  0
 13 33  1  0
 15 34  1  0
 16 35  1  0
M  END
> <ID>
HT2009

> <Class>
0.0

> <Clusters>
8

> <Fold>
4

$$$$