
     RDKit          3D

 35 35  0  0  0  0  0  0  0  0999 V2000
    4.6254   -1.5966    1.0329 C   0  0  0  0  0  0  0  0  0  0  0  0
    3.9141   -0.3172    0.9619 N   0  0  0  0  0  0  0  0  0  0  0  0
    4.4439    0.8742    1.6289 C   0  0  0  0  0  0  0  0  0  0  0  0
    2.6764   -0.2258    0.2361 C   0  0  0  0  0  0  0  0  0  0  0  0
    2.2205   -1.2397   -0.3618 O   0  0  0  0  0  0  0  0  0  0  0  0
    2.0109    1.0061    0.1522 O   0  0  0  0  0  0  0  0  0  0  0  0
    0.6827    1.1826   -0.2636 C   0  0  0  0  0  0  0  0  0  0  0  0
    0.3435    2.3756   -0.9009 C   0  0  0  0  0  0  0  0  0  0  0  0
   -0.9620    2.5987   -1.3262 C   0  0  0  0  0  0  0  0  0  0  0  0
   -1.9473    1.6353   -1.1099 C   0  0  0  0  0  0  0  0  0  0  0  0
   -1.6561    0.4155   -0.4471 C   0  0  0  0  0  0  0  0  0  0  0  0
   -0.3131    0.2181   -0.0191 C   0  0  0  0  0  0  0  0  0  0  0  0
   -2.7272   -0.5773   -0.2212 N   0  0  0  0  0  0  0  0  0  0  0  0
   -3.2946   -0.9981   -1.5261 C   0  0  0  0  0  0  0  0  0  0  0  0
   -3.7961    0.0290    0.6098 C   0  0  0  0  0  0  0  0  0  0  0  0
   -2.2580   -1.8032    0.4767 C   0  0  0  0  0  0  0  0  0  0  0  0
    4.8939   -1.9327    0.0091 H   0  0  0  0  0  0  0  0  0  0  0  0
    3.9750   -2.3602    1.5095 H   0  0  0  0  0  0  0  0  0  0  0  0
    5.5592   -1.5148    1.6279 H   0  0  0  0  0  0  0  0  0  0  0  0
    3.7099    1.2415    2.3770 H   0  0  0  0  0  0  0  0  0  0  0  0
    5.3985    0.6608    2.1539 H   0  0  0  0  0  0  0  0  0  0  0  0
    4.6303    1.6712    0.8784 H   0  0  0  0  0  0  0  0  0  0  0  0
    1.1000    3.1302   -1.0756 H   0  0  0  0  0  0  0  0  0  0  0  0
   -1.2137    3.5245   -1.8277 H   0  0  0  0  0  0  0  0  0  0  0  0
   -2.9456    1.8568   -1.4594 H   0  0  0  0  0  0  0  0  0  0  0  0
   -0.0235   -0.6600    0.5332 H   0  0  0  0  0  0  0  0  0  0  0  0
   -2.4974   -1.4014   -2.1905 H   0  0  0  0  0  0  0  0  0  0  0  0
   -4.0676   -1.7889   -1.3949 H   0  0  0  0  0  0  0  0  0  0  0  0
   -3.7903   -0.1569   -2.0559 H   0  0  0  0  0  0  0  0  0  0  0  0
   -4.2921    0.8789    0.0941 H   0  0  0  0  0  0  0  0  0  0  0  0
   -3.3811    0.4056    1.5718 H   0  0  0  0  0  0  0  0  0  0  0  0
   -4.5942   -0.7113    0.8443 H   0  0  0  0  0  0  0  0  0  0  0  0
   -1.8685   -1.5650    1.4919 H   0  0  0  0  0  0  0  0  0  0  0  0
   -3.0880   -2.5327    0.6167 H   0  0  0  0  0  0  0  0  0  0  0  0
   -1.4677   -2.3228   -0.1105 H   0  0  0  0  0  0  0  0  0  0  0  0
  1  2  1  0
  2  3  1  0
  2  4  1  0
  4  5  2  0
  4  6  1  0
  6  7  1  0
  7  8  2  0
  8  9  1  0
  9 10  2  0
 10 11  1  0
 11 12  2  0
 12  7  1  0
 11 13  1  0
 13 14  1  0
 13 15  1  0
 13 16  1  0
  1 17  1  0
  1 18  1  0
  1 19  1  0
  3 20  1  0
  3 21  1  0
  3 22  1  0
  8 23  1  0
  9 24  1  0
 10 25  1  0
 12 26  1  0
 14 27  1  0
 14 28  1  0
 14 29  1  0
 15 30  1  0
 15 31  1  0
 15 32  1  0
 16 33  1  0
 16 34  1  0
 16 35  1  0
M  CHG  1  13   1
M  END
> <ID>
HT1475

> <Class>
0.0

> <Clusters>
177

> <Fold>
4

$$$$