
     RDKit          3D

 28 29  0  0  0  0  0  0  0  0999 V2000
    4.6038   -1.5687    0.8542 N   0  0  0  0  0  0  0  0  0  0  0  0
    3.3814   -0.8948    0.5544 C   0  0  0  0  0  0  0  0  0  0  0  0
    2.2050   -1.5670    0.6212 N   0  0  0  0  0  0  0  0  0  0  0  0
    1.0224   -0.9584    0.3436 C   0  0  0  0  0  0  0  0  0  0  0  0
   -0.0392   -1.6343    0.4072 O   0  0  0  0  0  0  0  0  0  0  0  0
    0.9924    0.3705   -0.0070 N   0  0  0  0  0  0  0  0  0  0  0  0
    2.1672    1.0663   -0.0965 C   0  0  0  0  0  0  0  0  0  0  0  0
    3.3836    0.4489    0.1868 C   0  0  0  0  0  0  0  0  0  0  0  0
   -0.2745    1.0597   -0.3284 C   0  0  1  0  0  0  0  0  0  0  0  0
   -0.8295    0.6024   -1.6796 C   0  0  0  0  0  0  0  0  0  0  0  0
   -2.2470    0.1962   -1.3759 C   0  0  0  0  0  0  0  0  0  0  0  0
   -2.4792    0.7592    0.0182 C   0  0  1  0  0  0  0  0  0  0  0  0
   -3.4828   -0.0628    0.8365 C   0  0  0  0  0  0  0  0  0  0  0  0
   -2.9519   -1.3188    1.1705 O   0  0  0  0  0  0  0  0  0  0  0  0
   -1.2364    0.8151    0.6745 O   0  0  0  0  0  0  0  0  0  0  0  0
    5.5191   -1.0679    0.8062 H   0  0  0  0  0  0  0  0  0  0  0  0
    4.5953   -2.5765    1.1269 H   0  0  0  0  0  0  0  0  0  0  0  0
    2.1733    2.1097   -0.3887 H   0  0  0  0  0  0  0  0  0  0  0  0
    4.3088    1.0074    0.1187 H   0  0  0  0  0  0  0  0  0  0  0  0
   -0.1152    2.1626   -0.3683 H   0  0  0  0  0  0  0  0  0  0  0  0
   -0.2593   -0.2510   -2.1086 H   0  0  0  0  0  0  0  0  0  0  0  0
   -0.8145    1.4442   -2.4068 H   0  0  0  0  0  0  0  0  0  0  0  0
   -2.9636    0.6248   -2.1101 H   0  0  0  0  0  0  0  0  0  0  0  0
   -2.3239   -0.9128   -1.3882 H   0  0  0  0  0  0  0  0  0  0  0  0
   -2.8780    1.7959   -0.0751 H   0  0  0  0  0  0  0  0  0  0  0  0
   -4.4435   -0.1605    0.2785 H   0  0  0  0  0  0  0  0  0  0  0  0
   -3.7035    0.4824    1.7787 H   0  0  0  0  0  0  0  0  0  0  0  0
   -3.3104   -1.9717    0.5147 H   0  0  0  0  0  0  0  0  0  0  0  0
  1  2  1  0
  2  3  2  0
  3  4  1  0
  4  5  2  0
  4  6  1  0
  6  7  1  0
  7  8  2  0
  8  2  1  0
  9  6  1  0
  9 10  1  0
 10 11  1  0
 11 12  1  0
 12 13  1  0
 13 14  1  0
 12 15  1  0
 15  9  1  0
  1 16  1  0
  1 17  1  0
  7 18  1  0
  8 19  1  0
  9 20  1  6
 10 21  1  0
 10 22  1  0
 11 23  1  0
 11 24  1  0
 12 25  1  6
 13 26  1  0
 13 27  1  0
 14 28  1  0
M  END
> <ID>
HT2207

> <Class>
0.0

> <Clusters>
144

> <Fold>
4

$$$$