
     RDKit          3D

 52 52  0  0  0  0  0  0  0  0999 V2000
    8.0820    0.2364    2.2436 C   0  0  0  0  0  0  0  0  0  0  0  0
    6.8613    0.6893    1.4451 C   0  0  0  0  0  0  0  0  0  0  0  0
    5.6188   -0.1335    1.8166 C   0  0  0  0  0  0  0  0  0  0  0  0
    4.3988    0.2488    1.0194 C   0  0  0  0  0  0  0  0  0  0  0  0
    4.4309    1.2296    0.2256 O   0  0  0  0  0  0  0  0  0  0  0  0
    3.1838   -0.4940    1.2016 N   0  0  0  0  0  0  0  0  0  0  0  0
    2.0532   -0.4191    0.3153 C   0  0  0  0  0  0  0  0  0  0  0  0
    0.7679   -0.5880    0.8325 C   0  0  0  0  0  0  0  0  0  0  0  0
   -0.3439   -0.5501   -0.0068 C   0  0  0  0  0  0  0  0  0  0  0  0
   -0.1936   -0.3514   -1.3941 C   0  0  0  0  0  0  0  0  0  0  0  0
   -1.3072   -0.3078   -2.2544 O   0  0  0  0  0  0  0  0  0  0  0  0
   -2.6757   -0.4004   -1.8584 C   0  0  0  0  0  0  0  0  0  0  0  0
   -3.1684    0.9344   -1.2699 C   0  0  0  0  0  0  0  0  0  0  0  0
   -3.2109    1.9073   -2.2806 O   0  0  0  0  0  0  0  0  0  0  0  0
   -4.5713    0.7790   -0.6718 C   0  0  0  0  0  0  0  0  0  0  0  0
   -4.5109   -0.0417    0.5469 N   0  0  0  0  0  0  0  0  0  0  0  0
   -5.8011   -0.6800    0.8709 C   0  0  0  0  0  0  0  0  0  0  0  0
   -5.5886   -1.6941    1.9978 C   0  0  0  0  0  0  0  0  0  0  0  0
   -6.8718    0.3499    1.2766 C   0  0  0  0  0  0  0  0  0  0  0  0
    1.1073   -0.1985   -1.9360 C   0  0  0  0  0  0  0  0  0  0  0  0
    2.2182   -0.2460   -1.0682 C   0  0  0  0  0  0  0  0  0  0  0  0
    1.3173   -0.0006   -3.4022 C   0  0  0  0  0  0  0  0  0  0  0  0
    0.3856   -0.2442   -4.2167 O   0  0  0  0  0  0  0  0  0  0  0  0
    2.6344    0.4563   -3.9584 C   0  0  0  0  0  0  0  0  0  0  0  0
    8.9663    0.8417    1.9494 H   0  0  0  0  0  0  0  0  0  0  0  0
    8.3007   -0.8344    2.0387 H   0  0  0  0  0  0  0  0  0  0  0  0
    7.9022    0.3735    3.3327 H   0  0  0  0  0  0  0  0  0  0  0  0
    7.0786    0.5681    0.3593 H   0  0  0  0  0  0  0  0  0  0  0  0
    6.6762    1.7668    1.6524 H   0  0  0  0  0  0  0  0  0  0  0  0
    5.3926    0.0016    2.8977 H   0  0  0  0  0  0  0  0  0  0  0  0
    5.8278   -1.2106    1.6350 H   0  0  0  0  0  0  0  0  0  0  0  0
    3.0954   -1.0798    2.0632 H   0  0  0  0  0  0  0  0  0  0  0  0
    0.6263   -0.7419    1.8954 H   0  0  0  0  0  0  0  0  0  0  0  0
   -1.3181   -0.6758    0.4421 H   0  0  0  0  0  0  0  0  0  0  0  0
   -3.2804   -0.6385   -2.7599 H   0  0  0  0  0  0  0  0  0  0  0  0
   -2.8143   -1.2444   -1.1492 H   0  0  0  0  0  0  0  0  0  0  0  0
   -2.4826    1.2712   -0.4592 H   0  0  0  0  0  0  0  0  0  0  0  0
   -2.2755    2.2046   -2.4328 H   0  0  0  0  0  0  0  0  0  0  0  0
   -5.2407    0.3249   -1.4358 H   0  0  0  0  0  0  0  0  0  0  0  0
   -4.9711    1.7864   -0.4225 H   0  0  0  0  0  0  0  0  0  0  0  0
   -4.2012    0.5631    1.3476 H   0  0  0  0  0  0  0  0  0  0  0  0
   -6.1695   -1.2475   -0.0141 H   0  0  0  0  0  0  0  0  0  0  0  0
   -4.7740   -2.4036    1.7255 H   0  0  0  0  0  0  0  0  0  0  0  0
   -5.3104   -1.1771    2.9416 H   0  0  0  0  0  0  0  0  0  0  0  0
   -6.5203   -2.2765    2.1692 H   0  0  0  0  0  0  0  0  0  0  0  0
   -7.8082   -0.1695    1.5743 H   0  0  0  0  0  0  0  0  0  0  0  0
   -6.5213    0.9693    2.1283 H   0  0  0  0  0  0  0  0  0  0  0  0
   -7.1174    1.0150    0.4233 H   0  0  0  0  0  0  0  0  0  0  0  0
    3.2202   -0.1876   -1.4687 H   0  0  0  0  0  0  0  0  0  0  0  0
    2.5177    0.7762   -5.0154 H   0  0  0  0  0  0  0  0  0  0  0  0
    3.3664   -0.3779   -3.9207 H   0  0  0  0  0  0  0  0  0  0  0  0
    3.0184    1.3211   -3.3764 H   0  0  0  0  0  0  0  0  0  0  0  0
  1  2  1  0
  2  3  1  0
  3  4  1  0
  4  5  2  0
  4  6  1  0
  6  7  1  0
  7  8  2  0
  8  9  1  0
  9 10  2  0
 10 11  1  0
 11 12  1  0
 12 13  1  0
 13 14  1  0
 13 15  1  0
 15 16  1  0
 16 17  1  0
 17 18  1  0
 17 19  1  0
 10 20  1  0
 20 21  2  0
 21  7  1  0
 20 22  1  0
 22 23  2  0
 22 24  1  0
  1 25  1  0
  1 26  1  0
  1 27  1  0
  2 28  1  0
  2 29  1  0
  3 30  1  0
  3 31  1  0
  6 32  1  0
  8 33  1  0
  9 34  1  0
 12 35  1  0
 12 36  1  0
 13 37  1  0
 14 38  1  0
 15 39  1  0
 15 40  1  0
 16 41  1  0
 17 42  1  0
 18 43  1  0
 18 44  1  0
 18 45  1  0
 19 46  1  0
 19 47  1  0
 19 48  1  0
 21 49  1  0
 24 50  1  0
 24 51  1  0
 24 52  1  0
M  END
> <ID>
HT0047

> <Class>
0.0

> <Clusters>
11

> <Fold>
4

$$$$