
     RDKit          3D

137139  0  0  0  0  0  0  0  0999 V2000
    6.5992    2.4161   -0.6148 C   0  0  0  0  0  0  0  0  0  0  0  0
    5.6922    1.2288   -0.4239 C   0  0  0  0  0  0  0  0  0  0  0  0
    6.1940   -0.0398   -0.7350 C   0  0  0  0  0  0  0  0  0  0  0  0
    5.4462   -1.2116   -0.4916 C   0  0  0  0  0  0  0  0  0  0  0  0
    4.1999   -1.0614    0.1588 C   0  0  0  0  0  0  0  0  0  0  0  0
    3.6674    0.2044    0.4678 C   0  0  0  0  0  0  0  0  0  0  0  0
    2.4758    0.2808    1.4051 C   0  0  0  0  0  0  0  0  0  0  0  0
    1.1900    0.7922    0.7882 C   0  0  0  0  0  0  0  0  0  0  0  0
    0.6040    1.9577    1.3126 C   0  0  0  0  0  0  0  0  0  0  0  0
   -0.6815    2.3916    0.9148 C   0  0  0  0  0  0  0  0  0  0  0  0
   -1.3386    1.6429   -0.0829 C   0  0  0  0  0  0  0  0  0  0  0  0
   -0.7939    0.4563   -0.5931 C   0  0  0  0  0  0  0  0  0  0  0  0
   -1.6778   -0.4058   -1.4711 C   0  0  0  0  0  0  0  0  0  0  0  0
   -2.8312   -0.9904   -0.6813 C   0  0  0  0  0  0  0  0  0  0  0  0
   -4.1497   -0.6236   -0.9999 C   0  0  0  0  0  0  0  0  0  0  0  0
   -5.2650   -1.2153   -0.3593 C   0  0  0  0  0  0  0  0  0  0  0  0
   -4.9902   -2.0908    0.7201 C   0  0  0  0  0  0  0  0  0  0  0  0
   -3.6835   -2.4534    1.0493 C   0  0  0  0  0  0  0  0  0  0  0  0
   -2.5941   -1.9259    0.3424 C   0  0  0  0  0  0  0  0  0  0  0  0
   -1.2698   -2.3029    0.6193 O   0  0  0  0  0  0  0  0  0  0  0  0
   -0.8355   -3.1379    1.6936 C   0  0  0  0  0  0  0  0  0  0  0  0
   -0.9125   -2.4070    3.0346 C   0  0  0  0  0  0  0  0  0  0  0  0
   -0.2364   -1.1812    2.9696 O   0  0  0  0  0  0  0  0  0  0  0  0
   -6.7181   -0.8445   -0.7928 C   0  0  0  0  0  0  0  0  0  0  0  0
   -6.8200   -0.9127   -2.3369 C   0  0  0  0  0  0  0  0  0  0  0  0
   -6.9679    0.6085   -0.3204 C   0  0  0  0  0  0  0  0  0  0  0  0
   -7.7704   -1.8323   -0.1356 C   0  0  0  0  0  0  0  0  0  0  0  0
   -9.2811   -1.9507   -0.5779 C   0  0  0  0  0  0  0  0  0  0  0  0
  -10.0151   -2.7411    0.5371 C   0  0  0  0  0  0  0  0  0  0  0  0
   -9.9923   -0.5896   -0.7169 C   0  0  0  0  0  0  0  0  0  0  0  0
   -9.4444   -2.7689   -1.8835 C   0  0  0  0  0  0  0  0  0  0  0  0
    0.4972    0.0458   -0.1850 C   0  0  0  0  0  0  0  0  0  0  0  0
    1.0718   -1.1271   -0.6896 O   0  0  0  0  0  0  0  0  0  0  0  0
    1.5120   -1.2484   -2.0418 C   0  0  0  0  0  0  0  0  0  0  0  0
    1.3823   -2.7027   -2.4865 C   0  0  0  0  0  0  0  0  0  0  0  0
    1.7492   -2.8387   -3.8332 O   0  0  0  0  0  0  0  0  0  0  0  0
   -1.2949    3.7060    1.4759 C   0  0  0  0  0  0  0  0  0  0  0  0
   -2.8504    3.6498    1.3990 C   0  0  0  0  0  0  0  0  0  0  0  0
   -0.9229    3.8564    2.9733 C   0  0  0  0  0  0  0  0  0  0  0  0
   -0.7245    4.8713    0.5871 C   0  0  0  0  0  0  0  0  0  0  0  0
   -0.8520    6.3935    0.9712 C   0  0  0  0  0  0  0  0  0  0  0  0
   -2.2897    6.8062    1.3467 C   0  0  0  0  0  0  0  0  0  0  0  0
    0.1154    6.7895    2.1127 C   0  0  0  0  0  0  0  0  0  0  0  0
   -0.4399    7.2113   -0.2789 C   0  0  0  0  0  0  0  0  0  0  0  0
    4.3978    1.3605    0.1175 C   0  0  0  0  0  0  0  0  0  0  0  0
    3.8803    2.6369    0.3718 O   0  0  0  0  0  0  0  0  0  0  0  0
    2.9875    3.3043   -0.5258 C   0  0  0  0  0  0  0  0  0  0  0  0
    3.7100    3.8946   -1.7372 C   0  0  0  0  0  0  0  0  0  0  0  0
    4.1658    2.8846   -2.5932 O   0  0  0  0  0  0  0  0  0  0  0  0
    6.0386   -2.6264   -0.7377 C   0  0  0  0  0  0  0  0  0  0  0  0
    7.1531   -2.5755   -1.8115 C   0  0  0  0  0  0  0  0  0  0  0  0
    4.9146   -3.5425   -1.2915 C   0  0  0  0  0  0  0  0  0  0  0  0
    6.5722   -3.1343    0.6525 C   0  0  0  0  0  0  0  0  0  0  0  0
    7.4672   -4.4222    0.8131 C   0  0  0  0  0  0  0  0  0  0  0  0
    6.8991   -5.6507    0.0790 C   0  0  0  0  0  0  0  0  0  0  0  0
    7.5145   -4.7572    2.3248 C   0  0  0  0  0  0  0  0  0  0  0  0
    8.9257   -4.1749    0.3557 C   0  0  0  0  0  0  0  0  0  0  0  0
    6.7801    2.5781   -1.6969 H   0  0  0  0  0  0  0  0  0  0  0  0
    6.1811    3.3419   -0.1712 H   0  0  0  0  0  0  0  0  0  0  0  0
    7.5726    2.2270   -0.1132 H   0  0  0  0  0  0  0  0  0  0  0  0
    7.1962   -0.0921   -1.1325 H   0  0  0  0  0  0  0  0  0  0  0  0
    3.6567   -1.9378    0.4795 H   0  0  0  0  0  0  0  0  0  0  0  0
    2.2631   -0.7193    1.8424 H   0  0  0  0  0  0  0  0  0  0  0  0
    2.7729    0.9080    2.2741 H   0  0  0  0  0  0  0  0  0  0  0  0
    1.1672    2.5274    2.0360 H   0  0  0  0  0  0  0  0  0  0  0  0
   -2.3046    1.9470   -0.4563 H   0  0  0  0  0  0  0  0  0  0  0  0
   -2.0466    0.2162   -2.3162 H   0  0  0  0  0  0  0  0  0  0  0  0
   -1.1344   -1.2469   -1.9306 H   0  0  0  0  0  0  0  0  0  0  0  0
   -4.2909    0.1357   -1.7545 H   0  0  0  0  0  0  0  0  0  0  0  0
   -5.7708   -2.5205    1.3289 H   0  0  0  0  0  0  0  0  0  0  0  0
   -3.5396   -3.1613    1.8515 H   0  0  0  0  0  0  0  0  0  0  0  0
   -1.4256   -4.0785    1.7203 H   0  0  0  0  0  0  0  0  0  0  0  0
    0.2243   -3.4166    1.5053 H   0  0  0  0  0  0  0  0  0  0  0  0
   -0.4297   -3.0349    3.8136 H   0  0  0  0  0  0  0  0  0  0  0  0
   -1.9715   -2.2573    3.3440 H   0  0  0  0  0  0  0  0  0  0  0  0
   -0.8960   -0.5101    2.6389 H   0  0  0  0  0  0  0  0  0  0  0  0
   -7.7825   -0.5100   -2.6931 H   0  0  0  0  0  0  0  0  0  0  0  0
   -6.6906   -1.9580   -2.6871 H   0  0  0  0  0  0  0  0  0  0  0  0
   -6.0692   -0.2837   -2.8513 H   0  0  0  0  0  0  0  0  0  0  0  0
   -7.0448    0.6560    0.7861 H   0  0  0  0  0  0  0  0  0  0  0  0
   -6.1383    1.2785   -0.6320 H   0  0  0  0  0  0  0  0  0  0  0  0
   -7.8848    1.0407   -0.7583 H   0  0  0  0  0  0  0  0  0  0  0  0
   -7.7697   -1.6014    0.9538 H   0  0  0  0  0  0  0  0  0  0  0  0
   -7.3582   -2.8609   -0.2342 H   0  0  0  0  0  0  0  0  0  0  0  0
  -11.0831   -2.9089    0.2774 H   0  0  0  0  0  0  0  0  0  0  0  0
   -9.5390   -3.7341    0.6945 H   0  0  0  0  0  0  0  0  0  0  0  0
   -9.9859   -2.1857    1.5015 H   0  0  0  0  0  0  0  0  0  0  0  0
   -9.8267    0.0316    0.1897 H   0  0  0  0  0  0  0  0  0  0  0  0
   -9.6570   -0.0407   -1.6152 H   0  0  0  0  0  0  0  0  0  0  0  0
  -11.0886   -0.7367   -0.8342 H   0  0  0  0  0  0  0  0  0  0  0  0
   -8.8824   -3.7264   -1.8221 H   0  0  0  0  0  0  0  0  0  0  0  0
   -9.1096   -2.2213   -2.7799 H   0  0  0  0  0  0  0  0  0  0  0  0
  -10.5148   -3.0146   -2.0566 H   0  0  0  0  0  0  0  0  0  0  0  0
    0.9135   -0.5979   -2.7184 H   0  0  0  0  0  0  0  0  0  0  0  0
    2.5709   -0.9239   -2.1168 H   0  0  0  0  0  0  0  0  0  0  0  0
    0.3298   -3.0338   -2.3735 H   0  0  0  0  0  0  0  0  0  0  0  0
    2.0039   -3.3600   -1.8397 H   0  0  0  0  0  0  0  0  0  0  0  0
    2.7404   -2.8103   -3.8621 H   0  0  0  0  0  0  0  0  0  0  0  0
   -3.3418    4.3920    2.0546 H   0  0  0  0  0  0  0  0  0  0  0  0
   -3.2175    2.6577    1.7403 H   0  0  0  0  0  0  0  0  0  0  0  0
   -3.2154    3.8331    0.3660 H   0  0  0  0  0  0  0  0  0  0  0  0
   -1.5417    4.6273    3.4758 H   0  0  0  0  0  0  0  0  0  0  0  0
    0.1425    4.1352    3.1098 H   0  0  0  0  0  0  0  0  0  0  0  0
   -1.1076    2.8990    3.5104 H   0  0  0  0  0  0  0  0  0  0  0  0
    0.3581    4.6835    0.4430 H   0  0  0  0  0  0  0  0  0  0  0  0
   -1.1660    4.7341   -0.4259 H   0  0  0  0  0  0  0  0  0  0  0  0
   -2.5619    6.4370    2.3541 H   0  0  0  0  0  0  0  0  0  0  0  0
   -3.0175    6.4285    0.5963 H   0  0  0  0  0  0  0  0  0  0  0  0
   -2.3800    7.9139    1.3860 H   0  0  0  0  0  0  0  0  0  0  0  0
   -0.2342    6.4381    3.1021 H   0  0  0  0  0  0  0  0  0  0  0  0
    0.1924    7.8961    2.1942 H   0  0  0  0  0  0  0  0  0  0  0  0
    1.1345    6.3887    1.9261 H   0  0  0  0  0  0  0  0  0  0  0  0
   -1.1216    7.0000   -1.1337 H   0  0  0  0  0  0  0  0  0  0  0  0
   -0.4783    8.3030   -0.0799 H   0  0  0  0  0  0  0  0  0  0  0  0
    0.5976    6.9556   -0.5910 H   0  0  0  0  0  0  0  0  0  0  0  0
    2.5202    4.1406    0.0308 H   0  0  0  0  0  0  0  0  0  0  0  0
    2.1862    2.6216   -0.8736 H   0  0  0  0  0  0  0  0  0  0  0  0
    4.5713    4.5080   -1.3998 H   0  0  0  0  0  0  0  0  0  0  0  0
    3.0189    4.5751   -2.2864 H   0  0  0  0  0  0  0  0  0  0  0  0
    3.3682    2.5318   -3.0681 H   0  0  0  0  0  0  0  0  0  0  0  0
    6.8125   -1.9917   -2.6963 H   0  0  0  0  0  0  0  0  0  0  0  0
    7.4105   -3.5852   -2.1868 H   0  0  0  0  0  0  0  0  0  0  0  0
    8.0792   -2.1100   -1.4134 H   0  0  0  0  0  0  0  0  0  0  0  0
    4.3447   -3.0003   -2.0741 H   0  0  0  0  0  0  0  0  0  0  0  0
    4.2133   -3.8715   -0.4985 H   0  0  0  0  0  0  0  0  0  0  0  0
    5.3029   -4.4554   -1.7829 H   0  0  0  0  0  0  0  0  0  0  0  0
    5.6770   -3.2656    1.3013 H   0  0  0  0  0  0  0  0  0  0  0  0
    7.1340   -2.2952    1.1228 H   0  0  0  0  0  0  0  0  0  0  0  0
    7.4249   -6.5767    0.3995 H   0  0  0  0  0  0  0  0  0  0  0  0
    5.8177   -5.7790    0.3048 H   0  0  0  0  0  0  0  0  0  0  0  0
    7.0487   -5.5738   -1.0141 H   0  0  0  0  0  0  0  0  0  0  0  0
    6.4988   -4.9935    2.7096 H   0  0  0  0  0  0  0  0  0  0  0  0
    8.1633   -5.6386    2.5239 H   0  0  0  0  0  0  0  0  0  0  0  0
    7.9170   -3.8985    2.9056 H   0  0  0  0  0  0  0  0  0  0  0  0
    9.5915   -4.9934    0.7094 H   0  0  0  0  0  0  0  0  0  0  0  0
    9.3140   -3.2174    0.7642 H   0  0  0  0  0  0  0  0  0  0  0  0
    9.0255   -4.1616   -0.7447 H   0  0  0  0  0  0  0  0  0  0  0  0
  1  2  1  0
  2  3  2  0
  3  4  1  0
  4  5  2  0
  5  6  1  0
  6  7  1  0
  7  8  1  0
  8  9  2  0
  9 10  1  0
 10 11  2  0
 11 12  1  0
 12 13  1  0
 13 14  1  0
 14 15  2  0
 15 16  1  0
 16 17  2  0
 17 18  1  0
 18 19  2  0
 19 14  1  0
 19 20  1  0
 20 21  1  0
 21 22  1  0
 22 23  1  0
 16 24  1  0
 24 25  1  0
 24 26  1  0
 24 27  1  0
 27 28  1  0
 28 29  1  0
 28 30  1  0
 28 31  1  0
 12 32  2  0
 32  8  1  0
 32 33  1  0
 33 34  1  0
 34 35  1  0
 35 36  1  0
 10 37  1  0
 37 38  1  0
 37 39  1  0
 37 40  1  0
 40 41  1  0
 41 42  1  0
 41 43  1  0
 41 44  1  0
  6 45  2  0
 45  2  1  0
 45 46  1  0
 46 47  1  0
 47 48  1  0
 48 49  1  0
  4 50  1  0
 50 51  1  0
 50 52  1  0
 50 53  1  0
 53 54  1  0
 54 55  1  0
 54 56  1  0
 54 57  1  0
  1 58  1  0
  1 59  1  0
  1 60  1  0
  3 61  1  0
  5 62  1  0
  7 63  1  0
  7 64  1  0
  9 65  1  0
 11 66  1  0
 13 67  1  0
 13 68  1  0
 15 69  1  0
 17 70  1  0
 18 71  1  0
 21 72  1  0
 21 73  1  0
 22 74  1  0
 22 75  1  0
 23 76  1  0
 25 77  1  0
 25 78  1  0
 25 79  1  0
 26 80  1  0
 26 81  1  0
 26 82  1  0
 27 83  1  0
 27 84  1  0
 29 85  1  0
 29 86  1  0
 29 87  1  0
 30 88  1  0
 30 89  1  0
 30 90  1  0
 31 91  1  0
 31 92  1  0
 31 93  1  0
 34 94  1  0
 34 95  1  0
 35 96  1  0
 35 97  1  0
 36 98  1  0
 38 99  1  0
 38100  1  0
 38101  1  0
 39102  1  0
 39103  1  0
 39104  1  0
 40105  1  0
 40106  1  0
 42107  1  0
 42108  1  0
 42109  1  0
 43110  1  0
 43111  1  0
 43112  1  0
 44113  1  0
 44114  1  0
 44115  1  0
 47116  1  0
 47117  1  0
 48118  1  0
 48119  1  0
 49120  1  0
 51121  1  0
 51122  1  0
 51123  1  0
 52124  1  0
 52125  1  0
 52126  1  0
 53127  1  0
 53128  1  0
 55129  1  0
 55130  1  0
 55131  1  0
 56132  1  0
 56133  1  0
 56134  1  0
 57135  1  0
 57136  1  0
 57137  1  0
M  END
> <ID>
HT2146

> <Class>
0.0

> <Clusters>
203

> <Fold>
4

$$$$