
     RDKit          3D

 54 57  0  0  0  0  0  0  0  0999 V2000
   -6.0117    2.9610    1.3047 C   0  0  0  0  0  0  0  0  0  0  0  0
   -4.7769    2.2242    1.8240 C   0  0  0  0  0  0  0  0  0  0  0  0
   -4.1251    1.3446    0.7430 C   0  0  1  0  0  0  0  0  0  0  0  0
   -2.8583    0.9186    1.2003 O   0  0  0  0  0  0  0  0  0  0  0  0
   -2.6642   -0.3769    0.6917 C   0  0  1  0  0  0  0  0  0  0  0  0
   -1.5907   -1.1116    1.5197 C   0  0  0  0  0  0  0  0  0  0  0  0
   -1.2821   -2.5240    0.9979 C   0  0  0  0  0  0  0  0  0  0  0  0
   -0.8253   -2.4938   -0.3915 N   0  0  0  0  0  0  0  0  0  0  0  0
   -1.4509   -3.0104   -1.4805 C   0  0  0  0  0  0  0  0  0  0  0  0
   -0.7576   -2.8266   -2.6384 N   0  0  0  0  0  0  0  0  0  0  0  0
    0.3431   -2.1703   -2.2242 C   0  0  0  0  0  0  0  0  0  0  0  0
    1.4300   -1.7142   -2.9597 C   0  0  0  0  0  0  0  0  0  0  0  0
    1.5130   -1.8977   -4.3730 N   0  0  0  0  0  0  0  0  0  0  0  0
    2.4305   -1.0771   -2.2812 N   0  0  0  0  0  0  0  0  0  0  0  0
    2.3737   -0.8907   -0.9203 C   0  0  0  0  0  0  0  0  0  0  0  0
    1.2958   -1.3476   -0.2105 N   0  0  0  0  0  0  0  0  0  0  0  0
    0.3045   -1.9751   -0.8873 C   0  0  0  0  0  0  0  0  0  0  0  0
    3.4396   -0.2177   -0.2403 N   0  0  0  0  0  0  0  0  0  0  0  0
    4.5569    0.2800   -0.8043 C   0  0  0  0  0  0  0  0  0  0  0  0
    5.3226    0.8482    0.1935 C   0  0  0  0  0  0  0  0  0  0  0  0
    4.5974    0.6563    1.3578 C   0  0  0  0  0  0  0  0  0  0  0  0
    3.4547    0.0047    1.0651 N   0  0  0  0  0  0  0  0  0  0  0  0
    6.6294    1.5115    0.0294 C   0  0  0  0  0  0  0  0  0  0  0  0
    7.1384    1.5885   -1.1220 O   0  0  0  0  0  0  0  0  0  0  0  0
    7.3247    2.0670    1.1550 N   0  0  0  0  0  0  0  0  0  0  0  0
    8.6178    2.7232    1.0051 C   0  0  0  0  0  0  0  0  0  0  0  0
   -4.0326   -1.0569    0.6670 C   0  0  0  0  0  0  0  0  0  0  0  0
   -4.3459   -1.6832    1.8905 O   0  0  0  0  0  0  0  0  0  0  0  0
   -4.9725    0.1044    0.3957 C   0  0  0  0  0  0  0  0  0  0  0  0
   -5.3330    0.1405   -0.9617 O   0  0  0  0  0  0  0  0  0  0  0  0
   -5.7418    3.6048    0.4408 H   0  0  0  0  0  0  0  0  0  0  0  0
   -6.7991    2.2436    0.9931 H   0  0  0  0  0  0  0  0  0  0  0  0
   -6.4235    3.6052    2.1099 H   0  0  0  0  0  0  0  0  0  0  0  0
   -5.0532    1.6060    2.7060 H   0  0  0  0  0  0  0  0  0  0  0  0
   -4.0389    2.9834    2.1635 H   0  0  0  0  0  0  0  0  0  0  0  0
   -3.9628    1.9678   -0.1664 H   0  0  0  0  0  0  0  0  0  0  0  0
   -2.2920   -0.2806   -0.3548 H   0  0  0  0  0  0  0  0  0  0  0  0
   -1.9068   -1.1789    2.5826 H   0  0  0  0  0  0  0  0  0  0  0  0
   -0.6574   -0.5090    1.5049 H   0  0  0  0  0  0  0  0  0  0  0  0
   -2.1871   -3.1627    1.0864 H   0  0  0  0  0  0  0  0  0  0  0  0
   -0.4920   -2.9830    1.6303 H   0  0  0  0  0  0  0  0  0  0  0  0
   -2.4068   -3.5160   -1.4381 H   0  0  0  0  0  0  0  0  0  0  0  0
    0.7520   -2.3831   -4.8980 H   0  0  0  0  0  0  0  0  0  0  0  0
    2.3416   -1.5429   -4.9000 H   0  0  0  0  0  0  0  0  0  0  0  0
    4.7977    0.2343   -1.8591 H   0  0  0  0  0  0  0  0  0  0  0  0
    4.8731    0.9657    2.3561 H   0  0  0  0  0  0  0  0  0  0  0  0
    6.9098    2.0090    2.1109 H   0  0  0  0  0  0  0  0  0  0  0  0
    8.5214    3.5943    0.3232 H   0  0  0  0  0  0  0  0  0  0  0  0
    9.3580    2.0067    0.5909 H   0  0  0  0  0  0  0  0  0  0  0  0
    8.9777    3.0795    1.9934 H   0  0  0  0  0  0  0  0  0  0  0  0
   -4.0746   -1.8181   -0.1429 H   0  0  0  0  0  0  0  0  0  0  0  0
   -4.3258   -0.9939    2.6059 H   0  0  0  0  0  0  0  0  0  0  0  0
   -5.8888    0.0274    1.0282 H   0  0  0  0  0  0  0  0  0  0  0  0
   -6.0262   -0.5586   -1.0904 H   0  0  0  0  0  0  0  0  0  0  0  0
  1  2  1  0
  3  2  1  0
  3  4  1  0
  4  5  1  0
  5  6  1  0
  6  7  1  0
  7  8  1  0
  8  9  1  0
  9 10  2  0
 10 11  1  0
 11 12  2  0
 12 13  1  0
 12 14  1  0
 14 15  2  0
 15 16  1  0
 16 17  2  0
 17  8  1  0
 17 11  1  0
 15 18  1  0
 18 19  1  0
 19 20  2  0
 20 21  1  0
 21 22  2  0
 22 18  1  0
 20 23  1  0
 23 24  2  0
 23 25  1  0
 25 26  1  0
  5 27  1  0
 27 28  1  0
 27 29  1  0
 29  3  1  0
 29 30  1  0
  1 31  1  0
  1 32  1  0
  1 33  1  0
  2 34  1  0
  2 35  1  0
  3 36  1  6
  5 37  1  6
  6 38  1  0
  6 39  1  0
  7 40  1  0
  7 41  1  0
  9 42  1  0
 13 43  1  0
 13 44  1  0
 19 45  1  0
 21 46  1  0
 25 47  1  0
 26 48  1  0
 26 49  1  0
 26 50  1  0
 27 51  1  0
 28 52  1  0
 29 53  1  0
 30 54  1  0
M  END
> <ID>
HT1805

> <Class>
0.0

> <Clusters>
7

> <Fold>
4

$$$$