
     RDKit          3D

 71 74  0  0  0  0  0  0  0  0999 V2000
    6.0536    1.7470   -0.1796 C   0  0  0  0  0  0  0  0  0  0  0  0
    6.4981    0.5088   -0.9943 C   0  0  0  0  0  0  0  0  0  0  0  0
    7.9456    0.7395   -1.4827 C   0  0  0  0  0  0  0  0  0  0  0  0
    5.5795    0.3402   -2.2277 C   0  0  0  0  0  0  0  0  0  0  0  0
    6.4774   -0.7774   -0.1193 C   0  0  0  0  0  0  0  0  0  0  0  0
    5.1123   -1.1445    0.3938 C   0  0  0  0  0  0  0  0  0  0  0  0
    4.4952   -2.1224   -0.1132 O   0  0  0  0  0  0  0  0  0  0  0  0
    4.5522   -0.4204    1.4542 O   0  0  0  0  0  0  0  0  0  0  0  0
    3.2491   -0.6777    1.9732 C   0  0  0  0  0  0  0  0  0  0  0  0
    2.1824   -0.2156    1.0105 C   0  0  0  0  0  0  0  0  0  0  0  0
    2.4102    0.7615    0.3112 O   0  0  0  0  0  0  0  0  0  0  0  0
    0.8547   -0.9658    0.8362 C   0  0  1  0  0  0  0  0  0  0  0  0
    0.9798   -1.8733   -0.2404 O   0  0  0  0  0  0  0  0  0  0  0  0
    0.4544   -1.7924    2.0972 C   0  0  0  0  0  0  0  0  0  0  0  0
   -1.0795   -1.7297    2.2174 C   0  0  0  0  0  0  0  0  0  0  0  0
   -1.5302   -1.0218    0.9475 C   0  0  1  0  0  0  0  0  0  0  0  0
   -2.9508   -0.4025    0.8995 C   0  0  2  0  0  0  0  0  0  0  0  0
   -4.0053   -1.4802    1.2451 C   0  0  0  0  0  0  0  0  0  0  0  0
   -5.4301   -0.9501    1.1020 C   0  0  0  0  0  0  0  0  0  0  0  0
   -5.6249   -0.3949   -0.2863 C   0  0  0  0  0  0  0  0  0  0  0  0
   -6.5973   -0.8924   -1.0683 C   0  0  0  0  0  0  0  0  0  0  0  0
   -6.7647   -0.4297   -2.4459 C   0  0  0  0  0  0  0  0  0  0  0  0
   -7.6934   -0.8895   -3.1627 O   0  0  0  0  0  0  0  0  0  0  0  0
   -5.8382    0.5592   -2.9899 C   0  0  0  0  0  0  0  0  0  0  0  0
   -4.8643    1.0665   -2.2319 C   0  0  0  0  0  0  0  0  0  0  0  0
   -4.6642    0.7078   -0.7586 C   0  0  1  0  0  0  0  0  0  0  0  0
   -4.9873    1.9835    0.0554 C   0  0  0  0  0  0  0  0  0  0  0  0
   -3.1955    0.1656   -0.5439 C   0  0  1  0  0  0  0  0  0  0  0  0
   -2.0277    1.0990   -1.0444 C   0  0  1  0  0  0  0  0  0  0  0  0
   -2.1002    2.4176   -0.5701 O   0  0  0  0  0  0  0  0  0  0  0  0
   -0.6125    0.5028   -0.8050 C   0  0  0  0  0  0  0  0  0  0  0  0
   -0.3948   -0.0334    0.6389 C   0  0  2  0  0  0  0  0  0  0  0  0
   -0.3107    1.1543    1.6638 C   0  0  0  0  0  0  0  0  0  0  0  0
    6.1860    2.6745   -0.7773 H   0  0  0  0  0  0  0  0  0  0  0  0
    6.6532    1.8395    0.7532 H   0  0  0  0  0  0  0  0  0  0  0  0
    4.9812    1.6857    0.0958 H   0  0  0  0  0  0  0  0  0  0  0  0
    8.3139   -0.1352   -2.0654 H   0  0  0  0  0  0  0  0  0  0  0  0
    8.0029    1.6382   -2.1330 H   0  0  0  0  0  0  0  0  0  0  0  0
    8.6299    0.8925   -0.6186 H   0  0  0  0  0  0  0  0  0  0  0  0
    5.6412    1.2318   -2.8868 H   0  0  0  0  0  0  0  0  0  0  0  0
    5.8841   -0.5498   -2.8234 H   0  0  0  0  0  0  0  0  0  0  0  0
    4.5182    0.2109   -1.9187 H   0  0  0  0  0  0  0  0  0  0  0  0
    6.8736   -1.6311   -0.7164 H   0  0  0  0  0  0  0  0  0  0  0  0
    7.1570   -0.6562    0.7546 H   0  0  0  0  0  0  0  0  0  0  0  0
    3.1515   -1.7612    2.1987 H   0  0  0  0  0  0  0  0  0  0  0  0
    3.1325   -0.1113    2.9196 H   0  0  0  0  0  0  0  0  0  0  0  0
    1.4364   -1.4160   -0.9933 H   0  0  0  0  0  0  0  0  0  0  0  0
    0.8917   -1.3739    3.0305 H   0  0  0  0  0  0  0  0  0  0  0  0
    0.7946   -2.8472    2.0049 H   0  0  0  0  0  0  0  0  0  0  0  0
   -1.3757   -1.1437    3.1151 H   0  0  0  0  0  0  0  0  0  0  0  0
   -1.5164   -2.7504    2.2865 H   0  0  0  0  0  0  0  0  0  0  0  0
   -1.5256   -1.8110    0.1554 H   0  0  0  0  0  0  0  0  0  0  0  0
   -3.0503    0.3976    1.6549 H   0  0  0  0  0  0  0  0  0  0  0  0
   -3.8802   -2.3652    0.5816 H   0  0  0  0  0  0  0  0  0  0  0  0
   -3.8641   -1.8175    2.2949 H   0  0  0  0  0  0  0  0  0  0  0  0
   -5.6114   -0.1551    1.8545 H   0  0  0  0  0  0  0  0  0  0  0  0
   -6.1422   -1.7757    1.3201 H   0  0  0  0  0  0  0  0  0  0  0  0
   -7.2589   -1.6692   -0.7017 H   0  0  0  0  0  0  0  0  0  0  0  0
   -5.9501    0.8895   -4.0154 H   0  0  0  0  0  0  0  0  0  0  0  0
   -4.2367    1.8309   -2.6734 H   0  0  0  0  0  0  0  0  0  0  0  0
   -4.6731    1.8982    1.1154 H   0  0  0  0  0  0  0  0  0  0  0  0
   -6.0844    2.1710    0.0480 H   0  0  0  0  0  0  0  0  0  0  0  0
   -4.5118    2.8861   -0.3814 H   0  0  0  0  0  0  0  0  0  0  0  0
   -3.1298   -0.7217   -1.2188 H   0  0  0  0  0  0  0  0  0  0  0  0
   -2.1192    1.1684   -2.1492 H   0  0  0  0  0  0  0  0  0  0  0  0
   -2.3442    2.3965    0.3865 H   0  0  0  0  0  0  0  0  0  0  0  0
    0.1593    1.2614   -1.0569 H   0  0  0  0  0  0  0  0  0  0  0  0
   -0.4897   -0.3259   -1.5332 H   0  0  0  0  0  0  0  0  0  0  0  0
    0.2341    0.8696    2.5883 H   0  0  0  0  0  0  0  0  0  0  0  0
   -1.2848    1.5189    2.0240 H   0  0  0  0  0  0  0  0  0  0  0  0
    0.2345    2.0166    1.2227 H   0  0  0  0  0  0  0  0  0  0  0  0
  1  2  1  0
  2  3  1  0
  2  4  1  0
  2  5  1  0
  5  6  1  0
  6  7  2  0
  6  8  1  0
  8  9  1  0
  9 10  1  0
 10 11  2  0
 10 12  1  0
 12 13  1  6
 12 14  1  0
 14 15  1  0
 16 15  1  0
 16 17  1  0
 17 18  1  0
 18 19  1  0
 19 20  1  0
 20 21  2  0
 21 22  1  0
 22 23  2  0
 22 24  1  0
 24 25  2  0
 25 26  1  0
 26 20  1  0
 26 27  1  1
 26 28  1  0
 28 17  1  0
 28 29  1  0
 29 30  1  0
 29 31  1  0
 31 32  1  0
 32 12  1  0
 32 16  1  0
 32 33  1  1
  1 34  1  0
  1 35  1  0
  1 36  1  0
  3 37  1  0
  3 38  1  0
  3 39  1  0
  4 40  1  0
  4 41  1  0
  4 42  1  0
  5 43  1  0
  5 44  1  0
  9 45  1  0
  9 46  1  0
 13 47  1  0
 14 48  1  0
 14 49  1  0
 15 50  1  0
 15 51  1  0
 16 52  1  6
 17 53  1  1
 18 54  1  0
 18 55  1  0
 19 56  1  0
 19 57  1  0
 21 58  1  0
 24 59  1  0
 25 60  1  0
 27 61  1  0
 27 62  1  0
 27 63  1  0
 28 64  1  6
 29 65  1  6
 30 66  1  0
 31 67  1  0
 31 68  1  0
 33 69  1  0
 33 70  1  0
 33 71  1  0
M  END
> <ID>
HT1733

> <Class>
0.0

> <Clusters>
202

> <Fold>
4

$$$$