
     RDKit          3D

 21 21  0  0  0  0  0  0  0  0999 V2000
    2.4341   -0.2412   -0.5914 C   0  0  0  0  0  0  0  0  0  0  0  0
    1.6237    0.5575    0.4394 C   0  0  0  0  0  0  0  0  0  0  0  0
    0.1570    0.3951    0.3343 N   0  0  0  0  0  0  0  0  0  0  0  0
   -0.4069    0.9015   -0.9280 C   0  0  0  0  0  0  0  0  0  0  0  0
   -1.9362    0.8067   -0.8642 C   0  0  0  0  0  0  0  0  0  0  0  0
   -2.3467   -0.5302   -0.6394 O   0  0  0  0  0  0  0  0  0  0  0  0
   -1.8423   -0.9899    0.6018 C   0  0  0  0  0  0  0  0  0  0  0  0
   -0.3088   -0.9754    0.6034 C   0  0  0  0  0  0  0  0  0  0  0  0
    2.1947    0.0747   -1.6266 H   0  0  0  0  0  0  0  0  0  0  0  0
    2.2681   -1.3315   -0.4792 H   0  0  0  0  0  0  0  0  0  0  0  0
    3.5150   -0.0492   -0.4252 H   0  0  0  0  0  0  0  0  0  0  0  0
    1.8795    1.6344    0.3347 H   0  0  0  0  0  0  0  0  0  0  0  0
    1.9514    0.2572    1.4584 H   0  0  0  0  0  0  0  0  0  0  0  0
   -0.0520    0.3026   -1.7948 H   0  0  0  0  0  0  0  0  0  0  0  0
   -0.1163    1.9641   -1.0778 H   0  0  0  0  0  0  0  0  0  0  0  0
   -2.3562    1.1470   -1.8341 H   0  0  0  0  0  0  0  0  0  0  0  0
   -2.3360    1.4827   -0.0743 H   0  0  0  0  0  0  0  0  0  0  0  0
   -2.1901   -2.0325    0.7602 H   0  0  0  0  0  0  0  0  0  0  0  0
   -2.2388   -0.3767    1.4429 H   0  0  0  0  0  0  0  0  0  0  0  0
    0.0550   -1.3149    1.5976 H   0  0  0  0  0  0  0  0  0  0  0  0
    0.0517   -1.6820   -0.1755 H   0  0  0  0  0  0  0  0  0  0  0  0
  1  2  1  0
  2  3  1  0
  3  4  1  0
  4  5  1  0
  5  6  1  0
  6  7  1  0
  7  8  1  0
  8  3  1  0
  1  9  1  0
  1 10  1  0
  1 11  1  0
  2 12  1  0
  2 13  1  0
  4 14  1  0
  4 15  1  0
  5 16  1  0
  5 17  1  0
  7 18  1  0
  7 19  1  0
  8 20  1  0
  8 21  1  0
M  END
> <ID>
HT2471

> <Class>
0.0

> <Clusters>
248

> <Fold>
4

$$$$