
     RDKit          3D

 41 43  0  0  0  0  0  0  0  0999 V2000
    6.4569   -0.4040   -1.0724 C   0  0  0  0  0  0  0  0  0  0  0  0
    5.5628    0.1157   -0.0422 N   0  0  0  0  0  0  0  0  0  0  0  0
    4.1538    0.2884   -0.2326 C   0  0  0  0  0  0  0  0  0  0  0  0
    3.6252    0.0277   -1.3481 O   0  0  0  0  0  0  0  0  0  0  0  0
    3.3859    0.8045    0.8194 O   0  0  0  0  0  0  0  0  0  0  0  0
    1.9854    0.7726    0.8937 C   0  0  0  0  0  0  0  0  0  0  0  0
    1.3306    1.7795    1.6316 C   0  0  0  0  0  0  0  0  0  0  0  0
   -0.0678    1.7888    1.7448 C   0  0  0  0  0  0  0  0  0  0  0  0
   -0.7935    0.7749    1.1154 C   0  0  0  0  0  0  0  0  0  0  0  0
   -2.2000    0.6037    1.1317 N   0  0  0  0  0  0  0  0  0  0  0  0
   -3.0633    1.1631    2.1706 C   0  0  0  0  0  0  0  0  0  0  0  0
   -2.5412   -0.5788    0.3201 C   0  0  1  0  0  0  0  0  0  0  0  0
   -3.2693   -0.2377   -0.9225 N   0  0  0  0  0  0  0  0  0  0  0  0
   -4.0999    0.9746   -0.8672 C   0  0  0  0  0  0  0  0  0  0  0  0
   -2.2749   -0.1695   -1.9950 C   0  0  0  0  0  0  0  0  0  0  0  0
   -1.2095   -1.1895   -1.6481 C   0  0  0  0  0  0  0  0  0  0  0  0
   -1.1792   -1.1960   -0.1184 C   0  0  2  0  0  0  0  0  0  0  0  0
   -0.9538   -2.6014    0.4630 C   0  0  0  0  0  0  0  0  0  0  0  0
   -0.1703   -0.2201    0.4167 C   0  0  0  0  0  0  0  0  0  0  0  0
    1.2222   -0.2530    0.2911 C   0  0  0  0  0  0  0  0  0  0  0  0
    7.2349    0.3539   -1.3005 H   0  0  0  0  0  0  0  0  0  0  0  0
    5.9104   -0.6461   -2.0076 H   0  0  0  0  0  0  0  0  0  0  0  0
    6.9499   -1.3261   -0.7003 H   0  0  0  0  0  0  0  0  0  0  0  0
    5.9743    0.3695    0.8838 H   0  0  0  0  0  0  0  0  0  0  0  0
    1.9092    2.5588    2.1110 H   0  0  0  0  0  0  0  0  0  0  0  0
   -0.5671    2.5679    2.3057 H   0  0  0  0  0  0  0  0  0  0  0  0
   -4.0511    0.6572    2.1737 H   0  0  0  0  0  0  0  0  0  0  0  0
   -3.2124    2.2471    1.9855 H   0  0  0  0  0  0  0  0  0  0  0  0
   -2.5964    1.0211    3.1682 H   0  0  0  0  0  0  0  0  0  0  0  0
   -3.1487   -1.2926    0.9197 H   0  0  0  0  0  0  0  0  0  0  0  0
   -4.6385    1.1017   -1.8306 H   0  0  0  0  0  0  0  0  0  0  0  0
   -4.8677    0.8713   -0.0730 H   0  0  0  0  0  0  0  0  0  0  0  0
   -3.4873    1.8846   -0.6852 H   0  0  0  0  0  0  0  0  0  0  0  0
   -1.8073    0.8412   -2.0468 H   0  0  0  0  0  0  0  0  0  0  0  0
   -2.7448   -0.4095   -2.9732 H   0  0  0  0  0  0  0  0  0  0  0  0
   -1.5256   -2.1816   -2.0406 H   0  0  0  0  0  0  0  0  0  0  0  0
   -0.2298   -0.9243   -2.1032 H   0  0  0  0  0  0  0  0  0  0  0  0
   -1.7683   -3.2872    0.1455 H   0  0  0  0  0  0  0  0  0  0  0  0
   -0.9403   -2.5632    1.5737 H   0  0  0  0  0  0  0  0  0  0  0  0
    0.0143   -3.0150    0.1086 H   0  0  0  0  0  0  0  0  0  0  0  0
    1.6920   -1.0721   -0.2352 H   0  0  0  0  0  0  0  0  0  0  0  0
  1  2  1  0
  2  3  1  0
  3  4  2  0
  3  5  1  0
  5  6  1  0
  6  7  2  0
  7  8  1  0
  8  9  2  0
  9 10  1  0
 10 11  1  0
 10 12  1  0
 12 13  1  0
 13 14  1  0
 13 15  1  0
 15 16  1  0
 16 17  1  0
 17 12  1  0
 17 18  1  1
 17 19  1  0
 19  9  1  0
 19 20  2  0
 20  6  1  0
  1 21  1  0
  1 22  1  0
  1 23  1  0
  2 24  1  0
  7 25  1  0
  8 26  1  0
 11 27  1  0
 11 28  1  0
 11 29  1  0
 12 30  1  1
 14 31  1  0
 14 32  1  0
 14 33  1  0
 15 34  1  0
 15 35  1  0
 16 36  1  0
 16 37  1  0
 18 38  1  0
 18 39  1  0
 18 40  1  0
 20 41  1  0
M  END
> <ID>
HT1666

> <Class>
0.0

> <Clusters>
177

> <Fold>
4

$$$$