
     RDKit          3D

 25 24  0  0  0  0  0  0  0  0999 V2000
   -1.5231    1.6850   -0.2416 C   0  0  0  0  0  0  0  0  0  0  0  0
   -1.1999    0.6177    0.8094 C   0  0  0  0  0  0  0  0  0  0  0  0
   -0.7101   -0.7388    0.2174 C   0  0  0  0  0  0  0  0  0  0  0  0
   -1.8889   -1.4410   -0.4881 C   0  0  0  0  0  0  0  0  0  0  0  0
   -0.2288   -1.6805    1.3431 C   0  0  0  0  0  0  0  0  0  0  0  0
    0.3454   -0.5636   -0.7969 N   0  0  0  0  0  0  0  0  0  0  0  0
    1.5068    0.0335   -0.7633 C   0  0  0  0  0  0  0  0  0  0  0  0
    2.2927    0.0326   -1.9596 N   0  0  0  0  0  0  0  0  0  0  0  0
    1.9973    0.7060    0.4100 N   0  0  0  0  0  0  0  0  0  0  0  0
    3.0190    1.6635    0.3317 C   0  0  0  0  0  0  0  0  0  0  0  0
    3.8618    2.4540    0.2677 N   0  0  0  0  0  0  0  0  0  0  0  0
   -2.3670    1.3670   -0.8866 H   0  0  0  0  0  0  0  0  0  0  0  0
   -1.8220    2.6236    0.2710 H   0  0  0  0  0  0  0  0  0  0  0  0
   -0.6368    1.9053   -0.8714 H   0  0  0  0  0  0  0  0  0  0  0  0
   -0.4544    1.0416    1.5089 H   0  0  0  0  0  0  0  0  0  0  0  0
   -2.1129    0.4447    1.4207 H   0  0  0  0  0  0  0  0  0  0  0  0
   -1.5857   -2.4518   -0.8382 H   0  0  0  0  0  0  0  0  0  0  0  0
   -2.2165   -0.8706   -1.3820 H   0  0  0  0  0  0  0  0  0  0  0  0
   -2.7564   -1.5558    0.1974 H   0  0  0  0  0  0  0  0  0  0  0  0
    0.1978   -2.6114    0.9112 H   0  0  0  0  0  0  0  0  0  0  0  0
    0.5400   -1.2215    1.9894 H   0  0  0  0  0  0  0  0  0  0  0  0
   -1.0782   -1.9600    2.0036 H   0  0  0  0  0  0  0  0  0  0  0  0
    1.9299   -0.4233   -2.8265 H   0  0  0  0  0  0  0  0  0  0  0  0
    3.2472    0.4532   -1.9878 H   0  0  0  0  0  0  0  0  0  0  0  0
    1.6428    0.4906    1.3605 H   0  0  0  0  0  0  0  0  0  0  0  0
  1  2  1  0
  2  3  1  0
  3  4  1  0
  3  5  1  0
  3  6  1  0
  6  7  2  3
  7  8  1  0
  7  9  1  0
  9 10  1  0
 10 11  3  0
  1 12  1  0
  1 13  1  0
  1 14  1  0
  2 15  1  0
  2 16  1  0
  4 17  1  0
  4 18  1  0
  4 19  1  0
  5 20  1  0
  5 21  1  0
  5 22  1  0
  8 23  1  0
  8 24  1  0
  9 25  1  0
M  END
> <ID>
HT2651

> <Class>
0.0

> <Clusters>
256

> <Fold>
4

$$$$