
     RDKit          3D

 10  9  0  0  0  0  0  0  0  0999 V2000
   -0.1126    0.6496    0.5506 S   0  0  0  0  0  0  0  0  0  0  0  0
   -0.2154    2.1862   -0.1198 O   0  0  0  0  0  0  0  0  0  0  0  0
   -1.4214   -0.3674   -0.0921 C   0  0  0  0  0  0  0  0  0  0  0  0
    1.4619   -0.0703    0.1472 C   0  0  0  0  0  0  0  0  0  0  0  0
   -2.4011    0.0851    0.1648 H   0  0  0  0  0  0  0  0  0  0  0  0
   -1.3266   -0.4415   -1.1951 H   0  0  0  0  0  0  0  0  0  0  0  0
   -1.3555   -1.3813    0.3535 H   0  0  0  0  0  0  0  0  0  0  0  0
    2.2743    0.5669    0.5528 H   0  0  0  0  0  0  0  0  0  0  0  0
    1.5653   -0.1435   -0.9551 H   0  0  0  0  0  0  0  0  0  0  0  0
    1.5309   -1.0839    0.5931 H   0  0  0  0  0  0  0  0  0  0  0  0
  1  2  1  0
  1  3  1  0
  1  4  1  0
  3  5  1  0
  3  6  1  0
  3  7  1  0
  4  8  1  0
  4  9  1  0
  4 10  1  0
M  CHG  2   1   1   2  -1
M  END
> <ID>
HT2347

> <Class>
0.0

> <Clusters>
244

> <Fold>
4

$$$$