
     RDKit          3D

 16 16  0  0  0  0  0  0  0  0999 V2000
    2.5630   -1.1208   -0.2365 O   0  0  0  0  0  0  0  0  0  0  0  0
    1.9896    0.1190    0.0779 C   0  0  0  0  0  0  0  0  0  0  0  0
    0.4822    0.0681    0.0293 C   0  0  0  0  0  0  0  0  0  0  0  0
   -0.2221   -1.1082   -0.2981 C   0  0  0  0  0  0  0  0  0  0  0  0
   -1.6204   -1.1072   -0.3305 C   0  0  0  0  0  0  0  0  0  0  0  0
   -2.3284    0.0608   -0.0383 C   0  0  0  0  0  0  0  0  0  0  0  0
   -1.6399    1.2315    0.2873 C   0  0  0  0  0  0  0  0  0  0  0  0
   -0.2421    1.2363    0.3211 C   0  0  0  0  0  0  0  0  0  0  0  0
    3.5455   -0.9926   -0.1796 H   0  0  0  0  0  0  0  0  0  0  0  0
    2.3455    0.8847   -0.6471 H   0  0  0  0  0  0  0  0  0  0  0  0
    2.3047    0.4226    1.1012 H   0  0  0  0  0  0  0  0  0  0  0  0
    0.2998   -2.0276   -0.5290 H   0  0  0  0  0  0  0  0  0  0  0  0
   -2.1556   -2.0137   -0.5826 H   0  0  0  0  0  0  0  0  0  0  0  0
   -3.4105    0.0587   -0.0641 H   0  0  0  0  0  0  0  0  0  0  0  0
   -2.1892    2.1363    0.5136 H   0  0  0  0  0  0  0  0  0  0  0  0
    0.2778    2.1521    0.5753 H   0  0  0  0  0  0  0  0  0  0  0  0
  1  2  1  0
  2  3  1  0
  3  4  2  0
  4  5  1  0
  5  6  2  0
  6  7  1  0
  7  8  2  0
  8  3  1  0
  1  9  1  0
  2 10  1  0
  2 11  1  0
  4 12  1  0
  5 13  1  0
  6 14  1  0
  7 15  1  0
  8 16  1  0
M  END
> <ID>
HT2442

> <Class>
0.0

> <Clusters>
246

> <Fold>
4

$$$$