
     RDKit          3D

 48 51  0  0  0  0  0  0  0  0999 V2000
    5.3084   -0.3574   -0.4084 C   0  0  0  0  0  0  0  0  0  0  0  0
    4.6764    0.8326    0.3259 C   0  0  0  0  0  0  0  0  0  0  0  0
    3.3032    0.4792    0.9260 C   0  0  0  0  0  0  0  0  0  0  0  0
    2.2878    0.4240   -0.1277 N   0  0  0  0  0  0  0  0  0  0  0  0
    2.1946    1.5717   -1.0319 C   0  0  0  0  0  0  0  0  0  0  0  0
    3.5779    1.8930   -1.6059 C   0  0  0  0  0  0  0  0  0  0  0  0
    4.5950    2.0201   -0.5482 N   0  0  0  0  0  0  0  0  0  0  0  0
    1.2196   -0.5395   -0.0576 C   0  0  0  0  0  0  0  0  0  0  0  0
   -0.1138   -0.1081    0.0015 C   0  0  0  0  0  0  0  0  0  0  0  0
   -1.1807   -1.0334    0.0625 C   0  0  0  0  0  0  0  0  0  0  0  0
   -2.4932   -0.6195    0.1107 N   0  0  0  0  0  0  0  0  0  0  0  0
   -3.5112   -1.5244    0.2074 C   0  0  0  0  0  0  0  0  0  0  0  0
   -3.2617   -2.9026    0.2478 C   0  0  0  0  0  0  0  0  0  0  0  0
   -4.3968   -3.8572    0.3391 C   0  0  0  0  0  0  0  0  0  0  0  0
   -4.3047   -5.0002   -0.1824 O   0  0  0  0  0  0  0  0  0  0  0  0
   -5.5780   -3.5183    0.9975 O   0  0  0  0  0  0  0  0  0  0  0  0
   -1.9304   -3.3498    0.1779 C   0  0  0  0  0  0  0  0  0  0  0  0
   -1.6772   -4.5865    0.2145 O   0  0  0  0  0  0  0  0  0  0  0  0
   -0.8801   -2.4183    0.0863 C   0  0  0  0  0  0  0  0  0  0  0  0
    0.4609   -2.8416    0.0239 C   0  0  0  0  0  0  0  0  0  0  0  0
    1.4985   -1.9128   -0.0516 C   0  0  0  0  0  0  0  0  0  0  0  0
    2.7763   -2.3581   -0.1418 F   0  0  0  0  0  0  0  0  0  0  0  0
   -2.8544    0.7724    0.0423 C   0  0  0  0  0  0  0  0  0  0  0  0
   -3.2956    1.4406    1.1945 C   0  0  0  0  0  0  0  0  0  0  0  0
   -3.6480    2.7921    1.1315 C   0  0  0  0  0  0  0  0  0  0  0  0
   -3.5662    3.4815   -0.0823 C   0  0  0  0  0  0  0  0  0  0  0  0
   -3.9077    4.7923   -0.1416 F   0  0  0  0  0  0  0  0  0  0  0  0
   -3.1343    2.8189   -1.2356 C   0  0  0  0  0  0  0  0  0  0  0  0
   -2.7816    1.4667   -1.1773 C   0  0  0  0  0  0  0  0  0  0  0  0
   -2.3686    0.8314   -2.3026 F   0  0  0  0  0  0  0  0  0  0  0  0
    4.6371   -0.7504   -1.1994 H   0  0  0  0  0  0  0  0  0  0  0  0
    6.2689   -0.0482   -0.8724 H   0  0  0  0  0  0  0  0  0  0  0  0
    5.5165   -1.1778    0.3110 H   0  0  0  0  0  0  0  0  0  0  0  0
    5.3559    1.0775    1.1728 H   0  0  0  0  0  0  0  0  0  0  0  0
    3.3598   -0.4781    1.4882 H   0  0  0  0  0  0  0  0  0  0  0  0
    3.0165    1.2694    1.6537 H   0  0  0  0  0  0  0  0  0  0  0  0
    1.5010    1.3514   -1.8729 H   0  0  0  0  0  0  0  0  0  0  0  0
    1.8051    2.4509   -0.4741 H   0  0  0  0  0  0  0  0  0  0  0  0
    3.5199    2.8484   -2.1708 H   0  0  0  0  0  0  0  0  0  0  0  0
    3.8781    1.1091   -2.3327 H   0  0  0  0  0  0  0  0  0  0  0  0
    4.3523    2.8505    0.0426 H   0  0  0  0  0  0  0  0  0  0  0  0
   -0.3044    0.9562    0.0176 H   0  0  0  0  0  0  0  0  0  0  0  0
   -4.5357   -1.1694    0.2170 H   0  0  0  0  0  0  0  0  0  0  0  0
   -5.6799   -2.6530    1.5130 H   0  0  0  0  0  0  0  0  0  0  0  0
    0.7120   -3.8954    0.0298 H   0  0  0  0  0  0  0  0  0  0  0  0
   -3.3594    0.9130    2.1378 H   0  0  0  0  0  0  0  0  0  0  0  0
   -3.9841    3.3041    2.0239 H   0  0  0  0  0  0  0  0  0  0  0  0
   -3.0741    3.3530   -2.1752 H   0  0  0  0  0  0  0  0  0  0  0  0
  1  2  1  0
  2  3  1  0
  3  4  1  0
  4  5  1  0
  5  6  1  0
  6  7  1  0
  7  2  1  0
  4  8  1  0
  8  9  2  0
  9 10  1  0
 10 11  1  0
 11 12  1  0
 12 13  2  0
 13 14  1  0
 14 15  2  0
 14 16  1  0
 13 17  1  0
 17 18  2  0
 17 19  1  0
 19 10  2  0
 19 20  1  0
 20 21  2  0
 21  8  1  0
 21 22  1  0
 11 23  1  0
 23 24  2  0
 24 25  1  0
 25 26  2  0
 26 27  1  0
 26 28  1  0
 28 29  2  0
 29 23  1  0
 29 30  1  0
  1 31  1  0
  1 32  1  0
  1 33  1  0
  2 34  1  0
  3 35  1  0
  3 36  1  0
  5 37  1  0
  5 38  1  0
  6 39  1  0
  6 40  1  0
  7 41  1  0
  9 42  1  0
 12 43  1  0
 16 44  1  0
 20 45  1  0
 24 46  1  0
 25 47  1  0
 28 48  1  0
M  END
> <ID>
HT1996

> <Class>
0.0

> <Clusters>
232

> <Fold>
4

$$$$