
     RDKit          3D

 26 28  0  0  0  0  0  0  0  0999 V2000
   -3.0831    2.2101    1.7868 F   0  0  0  0  0  0  0  0  0  0  0  0
   -2.5027    1.1142    1.2388 C   0  0  0  0  0  0  0  0  0  0  0  0
   -3.2031   -0.0931    1.1864 C   0  0  0  0  0  0  0  0  0  0  0  0
   -2.6034   -1.2265    0.6328 C   0  0  0  0  0  0  0  0  0  0  0  0
   -1.3003   -1.1589    0.1283 C   0  0  0  0  0  0  0  0  0  0  0  0
   -0.7129   -2.3117   -0.4030 O   0  0  0  0  0  0  0  0  0  0  0  0
    0.6775   -2.3832   -0.7065 C   0  0  0  0  0  0  0  0  0  0  0  0
    1.1533   -1.0666   -1.3231 C   0  0  0  0  0  0  0  0  0  0  0  0
    0.8160    0.1399   -0.4159 C   0  0  0  0  0  0  0  0  0  0  0  0
    1.0039    1.3789   -1.1759 N   0  0  0  0  0  0  0  0  0  0  0  0
    2.0276    2.1365   -0.5463 C   0  0  0  0  0  0  0  0  0  0  0  0
    2.4193    3.2564   -0.9663 O   0  0  0  0  0  0  0  0  0  0  0  0
    2.5563    1.5080    0.6035 N   0  0  0  0  0  0  0  0  0  0  0  0
    1.8238    0.2952    0.6994 C   0  0  0  0  0  0  0  0  0  0  0  0
    1.9976   -0.5326    1.6328 O   0  0  0  0  0  0  0  0  0  0  0  0
   -0.5957    0.0643    0.1470 C   0  0  0  0  0  0  0  0  0  0  0  0
   -1.2046    1.1943    0.7264 C   0  0  0  0  0  0  0  0  0  0  0  0
   -4.2093   -0.1534    1.5809 H   0  0  0  0  0  0  0  0  0  0  0  0
   -3.1473   -2.1621    0.6047 H   0  0  0  0  0  0  0  0  0  0  0  0
    0.8522   -3.2168   -1.4187 H   0  0  0  0  0  0  0  0  0  0  0  0
    1.2457   -2.5990    0.2224 H   0  0  0  0  0  0  0  0  0  0  0  0
    2.2473   -1.1168   -1.5178 H   0  0  0  0  0  0  0  0  0  0  0  0
    0.6435   -0.9408   -2.3039 H   0  0  0  0  0  0  0  0  0  0  0  0
    0.4758    1.6630   -2.0313 H   0  0  0  0  0  0  0  0  0  0  0  0
    3.2979    1.8635    1.2465 H   0  0  0  0  0  0  0  0  0  0  0  0
   -0.6755    2.1374    0.7787 H   0  0  0  0  0  0  0  0  0  0  0  0
  1  2  1  0
  2  3  2  0
  3  4  1  0
  4  5  2  0
  5  6  1  0
  6  7  1  0
  7  8  1  0
  8  9  1  0
  9 10  1  0
 10 11  1  0
 11 12  2  0
 11 13  1  0
 13 14  1  0
 14  9  1  0
 14 15  2  0
  9 16  1  0
 16  5  1  0
 16 17  2  0
 17  2  1  0
  3 18  1  0
  4 19  1  0
  7 20  1  0
  7 21  1  0
  8 22  1  0
  8 23  1  0
 10 24  1  0
 13 25  1  0
 17 26  1  0
M  END
> <ID>
HT3027

> <Class>
0.0

> <Clusters>
217

> <Fold>
4

$$$$