
     RDKit          3D

 25 25  0  0  0  0  0  0  0  0999 V2000
   -1.6821   -0.6299   -0.7856 C   0  0  0  0  0  0  0  0  0  0  0  0
   -1.1791   -0.0198    0.4625 N   0  0  0  0  0  0  0  0  0  0  0  0
   -2.1841   -0.1475    1.5385 C   0  0  0  0  0  0  0  0  0  0  0  0
   -3.2856    0.8012    1.3283 C   0  0  0  0  0  0  0  0  0  0  0  0
   -4.1896    1.5797    1.1555 C   0  0  0  0  0  0  0  0  0  0  0  0
    0.0899   -0.6610    0.8706 C   0  0  0  0  0  0  0  0  0  0  0  0
    1.2175   -0.2455   -0.0397 C   0  0  0  0  0  0  0  0  0  0  0  0
    1.9082   -1.2000   -0.8056 C   0  0  0  0  0  0  0  0  0  0  0  0
    2.9514   -0.8045   -1.6488 C   0  0  0  0  0  0  0  0  0  0  0  0
    3.3133    0.5429   -1.7315 C   0  0  0  0  0  0  0  0  0  0  0  0
    2.6329    1.4976   -0.9707 C   0  0  0  0  0  0  0  0  0  0  0  0
    1.5890    1.1065   -0.1265 C   0  0  0  0  0  0  0  0  0  0  0  0
   -1.8662   -1.7201   -0.6593 H   0  0  0  0  0  0  0  0  0  0  0  0
   -0.9541   -0.4808   -1.6109 H   0  0  0  0  0  0  0  0  0  0  0  0
   -2.6267   -0.1409   -1.1052 H   0  0  0  0  0  0  0  0  0  0  0  0
   -2.5883   -1.1829    1.5956 H   0  0  0  0  0  0  0  0  0  0  0  0
   -1.7390    0.1004    2.5266 H   0  0  0  0  0  0  0  0  0  0  0  0
   -4.9831    2.2631    1.0035 H   0  0  0  0  0  0  0  0  0  0  0  0
    0.3759   -0.3420    1.8975 H   0  0  0  0  0  0  0  0  0  0  0  0
   -0.0210   -1.7695    0.8975 H   0  0  0  0  0  0  0  0  0  0  0  0
    1.6377   -2.2473   -0.7543 H   0  0  0  0  0  0  0  0  0  0  0  0
    3.4792   -1.5428   -2.2385 H   0  0  0  0  0  0  0  0  0  0  0  0
    4.1209    0.8471   -2.3847 H   0  0  0  0  0  0  0  0  0  0  0  0
    2.9142    2.5407   -1.0350 H   0  0  0  0  0  0  0  0  0  0  0  0
    1.0689    1.8552    0.4585 H   0  0  0  0  0  0  0  0  0  0  0  0
  1  2  1  0
  2  3  1  0
  3  4  1  0
  4  5  3  0
  2  6  1  0
  6  7  1  0
  7  8  2  0
  8  9  1  0
  9 10  2  0
 10 11  1  0
 11 12  2  0
 12  7  1  0
  1 13  1  0
  1 14  1  0
  1 15  1  0
  3 16  1  0
  3 17  1  0
  5 18  1  0
  6 19  1  0
  6 20  1  0
  8 21  1  0
  9 22  1  0
 10 23  1  0
 11 24  1  0
 12 25  1  0
M  END
> <ID>
HT1595

> <Class>
0.0

> <Clusters>
246

> <Fold>
4

$$$$