
     RDKit          3D

 61 64  0  0  0  0  0  0  0  0999 V2000
   -6.0240   -0.5915   -1.1998 C   0  0  0  0  0  0  0  0  0  0  0  0
   -4.9050   -0.2356   -0.2202 C   0  0  0  0  0  0  0  0  0  0  0  0
   -3.6476    0.2656   -0.9059 C   0  0  0  0  0  0  0  0  0  0  0  0
   -3.5826    0.2174   -2.1276 O   0  0  0  0  0  0  0  0  0  0  0  0
   -2.4459    0.8494   -0.1394 C   0  0  1  0  0  0  0  0  0  0  0  0
   -2.3358    2.3343   -0.6056 C   0  0  0  0  0  0  0  0  0  0  0  0
   -2.5676    0.7509    1.4385 C   0  0  2  0  0  0  0  0  0  0  0  0
   -3.1843    1.9684    2.1522 C   0  0  0  0  0  0  0  0  0  0  0  0
   -1.1552    0.4286    1.9871 C   0  0  0  0  0  0  0  0  0  0  0  0
   -0.2374    0.4589    0.7726 C   0  0  1  0  0  0  0  0  0  0  0  0
    1.1144   -0.2925    0.8520 C   0  0  2  0  0  0  0  0  0  0  0  0
    1.9232    0.1967    2.0752 C   0  0  0  0  0  0  0  0  0  0  0  0
    3.2973   -0.4658    2.1409 C   0  0  0  0  0  0  0  0  0  0  0  0
    4.0348   -0.2234    0.8492 C   0  0  0  0  0  0  0  0  0  0  0  0
    5.2282    0.3917    0.8755 C   0  0  0  0  0  0  0  0  0  0  0  0
    5.9349    0.7132   -0.3631 C   0  0  0  0  0  0  0  0  0  0  0  0
    7.0623    1.2724   -0.3231 O   0  0  0  0  0  0  0  0  0  0  0  0
    5.3183    0.3942   -1.6474 C   0  0  0  0  0  0  0  0  0  0  0  0
    4.1342   -0.2165   -1.6982 C   0  0  0  0  0  0  0  0  0  0  0  0
    3.3590   -0.6679   -0.4586 C   0  0  1  0  0  0  0  0  0  0  0  0
    3.3503   -2.2159   -0.4800 C   0  0  0  0  0  0  0  0  0  0  0  0
    1.9132   -0.0306   -0.4765 C   0  0  1  0  0  0  0  0  0  0  0  0
    1.0637   -0.3091   -1.7678 C   0  0  1  0  0  0  0  0  0  0  0  0
    0.9502   -1.6835   -2.0218 O   0  0  0  0  0  0  0  0  0  0  0  0
   -0.3425    0.3526   -1.7149 C   0  0  0  0  0  0  0  0  0  0  0  0
   -1.1219    0.0251   -0.4079 C   0  0  2  0  0  0  0  0  0  0  0  0
   -1.4588   -1.5092   -0.3681 C   0  0  0  0  0  0  0  0  0  0  0  0
   -5.6997   -1.4110   -1.8762 H   0  0  0  0  0  0  0  0  0  0  0  0
   -6.3056    0.2979   -1.8031 H   0  0  0  0  0  0  0  0  0  0  0  0
   -6.9171   -0.9332   -0.6352 H   0  0  0  0  0  0  0  0  0  0  0  0
   -5.2877    0.5483    0.4648 H   0  0  0  0  0  0  0  0  0  0  0  0
   -4.6650   -1.1452    0.3693 H   0  0  0  0  0  0  0  0  0  0  0  0
   -3.2778    2.8811   -0.3883 H   0  0  0  0  0  0  0  0  0  0  0  0
   -2.1948    2.4056   -1.7044 H   0  0  0  0  0  0  0  0  0  0  0  0
   -1.5086    2.8807   -0.1118 H   0  0  0  0  0  0  0  0  0  0  0  0
   -3.1996   -0.1148    1.7204 H   0  0  0  0  0  0  0  0  0  0  0  0
   -2.5272    2.8596    2.0707 H   0  0  0  0  0  0  0  0  0  0  0  0
   -3.3181    1.7397    3.2311 H   0  0  0  0  0  0  0  0  0  0  0  0
   -4.1810    2.2077    1.7289 H   0  0  0  0  0  0  0  0  0  0  0  0
   -0.8145    1.1646    2.7491 H   0  0  0  0  0  0  0  0  0  0  0  0
   -1.1409   -0.5833    2.4500 H   0  0  0  0  0  0  0  0  0  0  0  0
    0.0363    1.5297    0.6366 H   0  0  0  0  0  0  0  0  0  0  0  0
    0.9374   -1.3741    0.9983 H   0  0  0  0  0  0  0  0  0  0  0  0
    2.0527    1.3014    2.0337 H   0  0  0  0  0  0  0  0  0  0  0  0
    1.3769   -0.0476    3.0116 H   0  0  0  0  0  0  0  0  0  0  0  0
    3.8491   -0.0582    3.0165 H   0  0  0  0  0  0  0  0  0  0  0  0
    3.1810   -1.5578    2.3067 H   0  0  0  0  0  0  0  0  0  0  0  0
    5.6777    0.6848    1.8170 H   0  0  0  0  0  0  0  0  0  0  0  0
    5.8315    0.6490   -2.5666 H   0  0  0  0  0  0  0  0  0  0  0  0
    3.7493   -0.4706   -2.6775 H   0  0  0  0  0  0  0  0  0  0  0  0
    3.1081   -2.6161   -1.4858 H   0  0  0  0  0  0  0  0  0  0  0  0
    2.6317   -2.6432    0.2463 H   0  0  0  0  0  0  0  0  0  0  0  0
    4.3603   -2.6053   -0.2250 H   0  0  0  0  0  0  0  0  0  0  0  0
    2.0907    1.0711   -0.5013 H   0  0  0  0  0  0  0  0  0  0  0  0
    1.5896    0.1663   -2.6269 H   0  0  0  0  0  0  0  0  0  0  0  0
    0.6771   -1.7833   -2.9712 H   0  0  0  0  0  0  0  0  0  0  0  0
   -0.9365    0.0475   -2.6030 H   0  0  0  0  0  0  0  0  0  0  0  0
   -0.1724    1.4461   -1.7999 H   0  0  0  0  0  0  0  0  0  0  0  0
   -2.1175   -1.7697    0.4844 H   0  0  0  0  0  0  0  0  0  0  0  0
   -0.5788   -2.1660   -0.2779 H   0  0  0  0  0  0  0  0  0  0  0  0
   -1.9817   -1.8142   -1.2989 H   0  0  0  0  0  0  0  0  0  0  0  0
  1  2  1  0
  2  3  1  0
  3  4  2  0
  5  3  1  6
  5  6  1  0
  5  7  1  0
  7  8  1  0
  7  9  1  0
 10  9  1  0
 10 11  1  0
 11 12  1  0
 12 13  1  0
 13 14  1  0
 14 15  2  0
 15 16  1  0
 16 17  2  0
 16 18  1  0
 18 19  2  0
 19 20  1  0
 20 14  1  0
 20 21  1  1
 20 22  1  0
 22 11  1  0
 22 23  1  0
 23 24  1  0
 23 25  1  0
 25 26  1  0
 26  5  1  0
 26 10  1  0
 26 27  1  1
  1 28  1  0
  1 29  1  0
  1 30  1  0
  2 31  1  0
  2 32  1  0
  6 33  1  0
  6 34  1  0
  6 35  1  0
  7 36  1  6
  8 37  1  0
  8 38  1  0
  8 39  1  0
  9 40  1  0
  9 41  1  0
 10 42  1  6
 11 43  1  1
 12 44  1  0
 12 45  1  0
 13 46  1  0
 13 47  1  0
 15 48  1  0
 18 49  1  0
 19 50  1  0
 21 51  1  0
 21 52  1  0
 21 53  1  0
 22 54  1  1
 23 55  1  6
 24 56  1  0
 25 57  1  0
 25 58  1  0
 27 59  1  0
 27 60  1  0
 27 61  1  0
M  END
> <ID>
HT1827

> <Class>
0.0

> <Clusters>
202

> <Fold>
4

$$$$