
     RDKit          3D

 44 48  0  0  0  0  0  0  0  0999 V2000
   -3.4062    2.7882    0.7747 O   0  0  0  0  0  0  0  0  0  0  0  0
   -2.0934    2.3706    0.5060 C   0  0  1  0  0  0  0  0  0  0  0  0
   -1.4304    1.8689    1.7724 C   0  0  0  0  0  0  0  0  0  0  0  0
   -0.2650    1.2087    1.7048 C   0  0  0  0  0  0  0  0  0  0  0  0
    0.3261    0.8961    0.3476 C   0  0  1  0  0  0  0  0  0  0  0  0
    1.4194   -0.2214    0.3672 C   0  0  1  0  0  0  0  0  0  0  0  0
    0.8785   -1.5505    0.9690 C   0  0  0  0  0  0  0  0  0  0  0  0
   -0.5467   -1.8518    0.5639 C   0  0  0  0  0  0  0  0  0  0  0  0
   -1.2280   -2.9729    1.0766 C   0  0  0  0  0  0  0  0  0  0  0  0
   -2.6326   -3.0529    0.9767 C   0  0  0  0  0  0  0  0  0  0  0  0
   -3.3641   -1.9752    0.4460 C   0  0  0  0  0  0  0  0  0  0  0  0
   -4.7565   -1.9919    0.4619 O   0  0  0  0  0  0  0  0  0  0  0  0
   -2.6526   -0.8825   -0.0556 C   0  0  0  0  0  0  0  0  0  0  0  0
   -3.1609    0.3534   -0.3942 O   0  0  0  0  0  0  0  0  0  0  0  0
   -2.0997    1.2924   -0.6084 C   0  0  2  0  0  0  0  0  0  0  0  0
   -0.7794    0.4256   -0.6276 C   0  0  1  0  0  0  0  0  0  0  0  0
   -0.1995    0.2577   -2.0684 C   0  0  0  0  0  0  0  0  0  0  0  0
    1.3412    0.2632   -2.1093 C   0  0  0  0  0  0  0  0  0  0  0  0
    1.9195   -0.5318   -1.0041 N   0  0  0  0  0  0  0  0  0  0  0  0
    3.3911   -0.6476   -1.0840 C   0  0  0  0  0  0  0  0  0  0  0  0
    4.0944    0.6723   -0.8609 C   0  0  0  0  0  0  0  0  0  0  0  0
    4.9046    0.8727    0.1825 C   0  0  0  0  0  0  0  0  0  0  0  0
   -1.2911   -0.8916   -0.1287 C   0  0  0  0  0  0  0  0  0  0  0  0
   -3.3390    3.6537    1.2571 H   0  0  0  0  0  0  0  0  0  0  0  0
   -1.4973    3.2348    0.1295 H   0  0  0  0  0  0  0  0  0  0  0  0
   -1.8985    2.0351    2.7381 H   0  0  0  0  0  0  0  0  0  0  0  0
    0.2013    0.8414    2.6138 H   0  0  0  0  0  0  0  0  0  0  0  0
    0.7741    1.8443   -0.0235 H   0  0  0  0  0  0  0  0  0  0  0  0
    2.2459    0.1346    1.0223 H   0  0  0  0  0  0  0  0  0  0  0  0
    0.9165   -1.4845    2.0778 H   0  0  0  0  0  0  0  0  0  0  0  0
    1.5323   -2.3985    0.6704 H   0  0  0  0  0  0  0  0  0  0  0  0
   -0.6850   -3.7463    1.6049 H   0  0  0  0  0  0  0  0  0  0  0  0
   -3.1521   -3.9097    1.3861 H   0  0  0  0  0  0  0  0  0  0  0  0
   -5.2984   -1.2191    0.0936 H   0  0  0  0  0  0  0  0  0  0  0  0
   -2.2830    1.8039   -1.5775 H   0  0  0  0  0  0  0  0  0  0  0  0
   -0.5384    1.0835   -2.7295 H   0  0  0  0  0  0  0  0  0  0  0  0
   -0.5692   -0.6826   -2.5356 H   0  0  0  0  0  0  0  0  0  0  0  0
    1.6996    1.3141   -2.0653 H   0  0  0  0  0  0  0  0  0  0  0  0
    1.6664   -0.1574   -3.0860 H   0  0  0  0  0  0  0  0  0  0  0  0
    3.7353   -1.4079   -0.3481 H   0  0  0  0  0  0  0  0  0  0  0  0
    3.6819   -1.0373   -2.0832 H   0  0  0  0  0  0  0  0  0  0  0  0
    3.9615    1.4747   -1.5794 H   0  0  0  0  0  0  0  0  0  0  0  0
    5.0741    0.0949    0.9206 H   0  0  0  0  0  0  0  0  0  0  0  0
    5.4031    1.8286    0.3057 H   0  0  0  0  0  0  0  0  0  0  0  0
  2  1  1  0
  2  3  1  0
  3  4  2  0
  5  4  1  0
  5  6  1  0
  6  7  1  0
  7  8  1  0
  8  9  2  0
  9 10  1  0
 10 11  2  0
 11 12  1  0
 11 13  1  0
 13 14  1  0
 15 14  1  0
 15  2  1  0
 15 16  1  0
 16  5  1  0
 16 17  1  6
 17 18  1  0
 18 19  1  0
 19  6  1  0
 19 20  1  0
 20 21  1  0
 21 22  2  3
 16 23  1  0
 23  8  1  0
 23 13  2  0
  1 24  1  0
  2 25  1  6
  3 26  1  0
  4 27  1  0
  5 28  1  6
  6 29  1  1
  7 30  1  0
  7 31  1  0
  9 32  1  0
 10 33  1  0
 12 34  1  0
 15 35  1  6
 17 36  1  0
 17 37  1  0
 18 38  1  0
 18 39  1  0
 20 40  1  0
 20 41  1  0
 21 42  1  0
 22 43  1  0
 22 44  1  0
M  END
> <ID>
HT1458

> <Class>
0.0

> <Clusters>
63

> <Fold>
4

$$$$