
     RDKit          3D

 43 45  0  0  0  0  0  0  0  0999 V2000
   -1.7533   -3.8417    0.6502 O   0  0  0  0  0  0  0  0  0  0  0  0
   -1.0833   -2.7019    1.0879 C   0  0  0  0  0  0  0  0  0  0  0  0
   -1.2040   -2.3470    2.2895 O   0  0  0  0  0  0  0  0  0  0  0  0
   -0.2036   -1.9299    0.1932 C   0  0  0  0  0  0  0  0  0  0  0  0
    0.8488   -1.2113    0.6423 N   0  0  0  0  0  0  0  0  0  0  0  0
    1.4796   -0.6993   -0.4067 N   0  0  0  0  0  0  0  0  0  0  0  0
    0.8525   -1.0935   -1.5366 C   0  0  0  0  0  0  0  0  0  0  0  0
    1.2609   -0.8138   -2.8393 O   0  0  0  0  0  0  0  0  0  0  0  0
   -0.2398   -1.8494   -1.1938 C   0  0  0  0  0  0  0  0  0  0  0  0
   -1.1823   -2.4240   -2.1105 N   0  0  0  0  0  0  0  0  0  0  0  0
   -2.4544   -2.3270   -2.0177 N   0  0  0  0  0  0  0  0  0  0  0  0
   -3.1648   -1.5133   -1.0700 C   0  0  0  0  0  0  0  0  0  0  0  0
   -2.7808   -0.1869   -0.8068 C   0  0  0  0  0  0  0  0  0  0  0  0
   -3.5026    0.5868    0.1064 C   0  0  0  0  0  0  0  0  0  0  0  0
   -4.6259    0.0519    0.7507 C   0  0  0  0  0  0  0  0  0  0  0  0
   -5.0373   -1.2540    0.4531 C   0  0  0  0  0  0  0  0  0  0  0  0
   -4.3152   -2.0278   -0.4603 C   0  0  0  0  0  0  0  0  0  0  0  0
   -5.5403    1.0311    1.8930 S   0  0  0  0  0  0  0  0  0  0  0  0
   -6.1711    0.1421    2.9275 O   0  0  0  0  0  0  0  0  0  0  0  0
   -4.6253    2.0004    2.5879 O   0  0  0  0  0  0  0  0  0  0  0  0
   -6.7438    1.8753    1.0782 O   0  0  0  0  0  0  0  0  0  0  0  0
    2.6337    0.1465   -0.2899 C   0  0  0  0  0  0  0  0  0  0  0  0
    3.6508   -0.1808    0.6195 C   0  0  0  0  0  0  0  0  0  0  0  0
    4.7659    0.6502    0.7622 C   0  0  0  0  0  0  0  0  0  0  0  0
    4.8675    1.8284    0.0112 C   0  0  0  0  0  0  0  0  0  0  0  0
    3.8462    2.1674   -0.8859 C   0  0  0  0  0  0  0  0  0  0  0  0
    2.7311    1.3366   -1.0293 C   0  0  0  0  0  0  0  0  0  0  0  0
    6.2749    2.8698    0.1835 S   0  0  0  0  0  0  0  0  0  0  0  0
    7.2881    2.5135   -0.8675 O   0  0  0  0  0  0  0  0  0  0  0  0
    5.8628    4.3068    0.0245 O   0  0  0  0  0  0  0  0  0  0  0  0
    6.9475    2.6630    1.7111 O   0  0  0  0  0  0  0  0  0  0  0  0
   -1.5998   -4.2339   -0.2695 H   0  0  0  0  0  0  0  0  0  0  0  0
    2.1351   -0.3459   -3.0386 H   0  0  0  0  0  0  0  0  0  0  0  0
   -1.9345    0.2542   -1.3168 H   0  0  0  0  0  0  0  0  0  0  0  0
   -3.1911    1.6048    0.3028 H   0  0  0  0  0  0  0  0  0  0  0  0
   -5.9173   -1.6727    0.9243 H   0  0  0  0  0  0  0  0  0  0  0  0
   -4.6411   -3.0363   -0.6814 H   0  0  0  0  0  0  0  0  0  0  0  0
   -6.2618    2.4246    0.4092 H   0  0  0  0  0  0  0  0  0  0  0  0
    3.5838   -1.0869    1.2086 H   0  0  0  0  0  0  0  0  0  0  0  0
    5.5480    0.3735    1.4574 H   0  0  0  0  0  0  0  0  0  0  0  0
    3.9091    3.0776   -1.4689 H   0  0  0  0  0  0  0  0  0  0  0  0
    1.9353    1.6314   -1.7013 H   0  0  0  0  0  0  0  0  0  0  0  0
    7.7517    3.2412    1.7170 H   0  0  0  0  0  0  0  0  0  0  0  0
  1  2  1  0
  2  3  2  0
  2  4  1  0
  4  5  2  0
  5  6  1  0
  6  7  1  0
  7  8  1  0
  7  9  2  0
  9  4  1  0
  9 10  1  0
 10 11  2  3
 11 12  1  0
 12 13  2  0
 13 14  1  0
 14 15  2  0
 15 16  1  0
 16 17  2  0
 17 12  1  0
 15 18  1  0
 18 19  2  0
 18 20  2  0
 18 21  1  0
  6 22  1  0
 22 23  2  0
 23 24  1  0
 24 25  2  0
 25 26  1  0
 26 27  2  0
 27 22  1  0
 25 28  1  0
 28 29  2  0
 28 30  2  0
 28 31  1  0
  1 32  1  0
  8 33  1  0
 13 34  1  0
 14 35  1  0
 16 36  1  0
 17 37  1  0
 21 38  1  0
 23 39  1  0
 24 40  1  0
 26 41  1  0
 27 42  1  0
 31 43  1  0
M  END
> <ID>
HT2280

> <Class>
0.0

> <Clusters>
275

> <Fold>
4

$$$$