
     RDKit          3D

 67 66  0  0  0  0  0  0  0  0999 V2000
    9.0159   -1.0190    1.6503 C   0  0  0  0  0  0  0  0  0  0  0  0
    7.5613   -1.3784    1.9530 C   0  0  0  0  0  0  0  0  0  0  0  0
    6.5665   -0.6356    1.0477 C   0  0  0  0  0  0  0  0  0  0  0  0
    6.6310   -1.1133   -0.4138 C   0  0  0  0  0  0  0  0  0  0  0  0
    5.4839   -0.5504   -1.2671 C   0  0  0  0  0  0  0  0  0  0  0  0
    5.6538    0.9490   -1.5714 C   0  0  0  0  0  0  0  0  0  0  0  0
    4.5440    1.4883   -2.4984 C   0  0  0  0  0  0  0  0  0  0  0  0
    3.4489    2.2880   -1.7648 C   0  0  0  0  0  0  0  0  0  0  0  0
    2.6481    1.4951   -0.7184 C   0  0  0  0  0  0  0  0  0  0  0  0
    1.7809    0.3887   -1.3433 C   0  0  0  0  0  0  0  0  0  0  0  0
    1.0534   -0.4632   -0.2874 C   0  0  0  0  0  0  0  0  0  0  0  0
   -0.0203    0.2824    0.5263 C   0  0  0  0  0  0  0  0  0  0  0  0
   -1.1793    0.7974   -0.3446 C   0  0  0  0  0  0  0  0  0  0  0  0
   -2.3447    1.3523    0.4911 C   0  0  0  0  0  0  0  0  0  0  0  0
   -3.2120    0.2418    1.1036 C   0  0  0  0  0  0  0  0  0  0  0  0
   -4.4364    0.8322    1.8195 C   0  0  0  0  0  0  0  0  0  0  0  0
   -5.2864   -0.2488    2.5007 C   0  0  0  0  0  0  0  0  0  0  0  0
   -5.9179   -1.1716    1.5028 C   0  0  0  0  0  0  0  0  0  0  0  0
   -5.6502   -2.4039    1.5306 O   0  0  0  0  0  0  0  0  0  0  0  0
   -6.8004   -0.6552    0.5503 O   0  0  0  0  0  0  0  0  0  0  0  0
   -7.4201   -1.4657   -0.4438 C   0  0  0  0  0  0  0  0  0  0  0  0
   -8.3250   -0.6049   -1.3368 C   0  0  0  0  0  0  0  0  0  0  0  0
   -8.8831   -1.3956   -2.3543 O   0  0  0  0  0  0  0  0  0  0  0  0
   -9.4540    0.0608   -0.5336 C   0  0  0  0  0  0  0  0  0  0  0  0
  -10.2763   -0.8973    0.0778 O   0  0  0  0  0  0  0  0  0  0  0  0
    9.1625    0.0806    1.7004 H   0  0  0  0  0  0  0  0  0  0  0  0
    9.6791   -1.4979    2.4019 H   0  0  0  0  0  0  0  0  0  0  0  0
    9.3118   -1.3867    0.6462 H   0  0  0  0  0  0  0  0  0  0  0  0
    7.3478   -1.1045    3.0096 H   0  0  0  0  0  0  0  0  0  0  0  0
    7.4207   -2.4769    1.8558 H   0  0  0  0  0  0  0  0  0  0  0  0
    5.5442   -0.8163    1.4440 H   0  0  0  0  0  0  0  0  0  0  0  0
    6.7626    0.4553    1.1054 H   0  0  0  0  0  0  0  0  0  0  0  0
    6.5572   -2.2233   -0.4339 H   0  0  0  0  0  0  0  0  0  0  0  0
    7.6037   -0.8310   -0.8709 H   0  0  0  0  0  0  0  0  0  0  0  0
    5.4668   -1.1083   -2.2296 H   0  0  0  0  0  0  0  0  0  0  0  0
    4.5180   -0.7441   -0.7591 H   0  0  0  0  0  0  0  0  0  0  0  0
    5.6898    1.5386   -0.6313 H   0  0  0  0  0  0  0  0  0  0  0  0
    6.6333    1.0892   -2.0804 H   0  0  0  0  0  0  0  0  0  0  0  0
    5.0181    2.1846   -3.2253 H   0  0  0  0  0  0  0  0  0  0  0  0
    4.0961    0.6794   -3.1130 H   0  0  0  0  0  0  0  0  0  0  0  0
    2.7442    2.7012   -2.5193 H   0  0  0  0  0  0  0  0  0  0  0  0
    3.9219    3.1578   -1.2592 H   0  0  0  0  0  0  0  0  0  0  0  0
    1.9855    2.2194   -0.1995 H   0  0  0  0  0  0  0  0  0  0  0  0
    3.3309    1.0730    0.0480 H   0  0  0  0  0  0  0  0  0  0  0  0
    2.4247   -0.3006   -1.9256 H   0  0  0  0  0  0  0  0  0  0  0  0
    1.0561    0.8303   -2.0587 H   0  0  0  0  0  0  0  0  0  0  0  0
    1.8057   -0.8808    0.4162 H   0  0  0  0  0  0  0  0  0  0  0  0
    0.5757   -1.3292   -0.7952 H   0  0  0  0  0  0  0  0  0  0  0  0
   -0.4117   -0.4342    1.2772 H   0  0  0  0  0  0  0  0  0  0  0  0
    0.4342    1.1240    1.0905 H   0  0  0  0  0  0  0  0  0  0  0  0
   -1.5466   -0.0109   -1.0146 H   0  0  0  0  0  0  0  0  0  0  0  0
   -0.8049    1.6247   -0.9843 H   0  0  0  0  0  0  0  0  0  0  0  0
   -2.9828    1.9716   -0.1778 H   0  0  0  0  0  0  0  0  0  0  0  0
   -1.9534    2.0176    1.2922 H   0  0  0  0  0  0  0  0  0  0  0  0
   -3.5519   -0.4431    0.2964 H   0  0  0  0  0  0  0  0  0  0  0  0
   -2.6153   -0.3439    1.8344 H   0  0  0  0  0  0  0  0  0  0  0  0
   -5.0632    1.4000    1.0965 H   0  0  0  0  0  0  0  0  0  0  0  0
   -4.0910    1.5453    2.5996 H   0  0  0  0  0  0  0  0  0  0  0  0
   -4.6575   -0.8253    3.2143 H   0  0  0  0  0  0  0  0  0  0  0  0
   -6.0945    0.2420    3.0839 H   0  0  0  0  0  0  0  0  0  0  0  0
   -6.6322   -1.9391   -1.0704 H   0  0  0  0  0  0  0  0  0  0  0  0
   -8.0145   -2.2709    0.0412 H   0  0  0  0  0  0  0  0  0  0  0  0
   -7.7085    0.2062   -1.7910 H   0  0  0  0  0  0  0  0  0  0  0  0
   -8.1657   -1.5523   -3.0240 H   0  0  0  0  0  0  0  0  0  0  0  0
   -9.0219    0.7137    0.2542 H   0  0  0  0  0  0  0  0  0  0  0  0
  -10.0548    0.7157   -1.2049 H   0  0  0  0  0  0  0  0  0  0  0  0
  -10.9023   -1.2238   -0.6194 H   0  0  0  0  0  0  0  0  0  0  0  0
  1  2  1  0
  2  3  1  0
  3  4  1  0
  4  5  1  0
  5  6  1  0
  6  7  1  0
  7  8  1  0
  8  9  1  0
  9 10  1  0
 10 11  1  0
 11 12  1  0
 12 13  1  0
 13 14  1  0
 14 15  1  0
 15 16  1  0
 16 17  1  0
 17 18  1  0
 18 19  2  0
 18 20  1  0
 20 21  1  0
 21 22  1  0
 22 23  1  0
 22 24  1  0
 24 25  1  0
  1 26  1  0
  1 27  1  0
  1 28  1  0
  2 29  1  0
  2 30  1  0
  3 31  1  0
  3 32  1  0
  4 33  1  0
  4 34  1  0
  5 35  1  0
  5 36  1  0
  6 37  1  0
  6 38  1  0
  7 39  1  0
  7 40  1  0
  8 41  1  0
  8 42  1  0
  9 43  1  0
  9 44  1  0
 10 45  1  0
 10 46  1  0
 11 47  1  0
 11 48  1  0
 12 49  1  0
 12 50  1  0
 13 51  1  0
 13 52  1  0
 14 53  1  0
 14 54  1  0
 15 55  1  0
 15 56  1  0
 16 57  1  0
 16 58  1  0
 17 59  1  0
 17 60  1  0
 21 61  1  0
 21 62  1  0
 22 63  1  0
 23 64  1  0
 24 65  1  0
 24 66  1  0
 25 67  1  0
M  END
> <ID>
HT3636

> <Class>
0.0

> <Clusters>
270

> <Fold>
4

$$$$