
     RDKit          3D

 41 42  0  0  0  0  0  0  0  0999 V2000
   -0.1359    0.5562   -1.8052 C   0  0  0  0  0  0  0  0  0  0  0  0
    0.0303   -0.1650   -0.4584 C   0  0  0  0  0  0  0  0  0  0  0  0
    1.4017   -0.8869   -0.3969 C   0  0  0  0  0  0  0  0  0  0  0  0
    2.5395    0.0491   -0.5622 N   0  0  0  0  0  0  0  0  0  0  0  0
    3.8011   -0.6785   -0.8668 C   0  0  0  0  0  0  0  0  0  0  0  0
    4.6463   -0.9364    0.3877 C   0  0  0  0  0  0  0  0  0  0  0  0
    5.0603    0.3842    1.0593 C   0  0  0  0  0  0  0  0  0  0  0  0
    4.0743    1.5277    0.7700 C   0  0  0  0  0  0  0  0  0  0  0  0
    2.6498    0.9903    0.5863 C   0  0  0  0  0  0  0  0  0  0  0  0
   -1.1257   -1.1305   -0.2414 C   0  0  0  0  0  0  0  0  0  0  0  0
   -0.9039   -2.3727   -0.2935 O   0  0  0  0  0  0  0  0  0  0  0  0
   -2.5207   -0.6660    0.0189 C   0  0  0  0  0  0  0  0  0  0  0  0
   -3.5829   -1.5901   -0.0331 C   0  0  0  0  0  0  0  0  0  0  0  0
   -4.8978   -1.1838    0.2097 C   0  0  0  0  0  0  0  0  0  0  0  0
   -5.1824    0.1565    0.5000 C   0  0  0  0  0  0  0  0  0  0  0  0
   -6.5887    0.5839    0.7993 C   0  0  0  0  0  0  0  0  0  0  0  0
   -4.1317    1.0797    0.5770 C   0  0  0  0  0  0  0  0  0  0  0  0
   -2.8152    0.6764    0.3347 C   0  0  0  0  0  0  0  0  0  0  0  0
   -1.1120    1.0808   -1.8582 H   0  0  0  0  0  0  0  0  0  0  0  0
   -0.0810   -0.1705   -2.6441 H   0  0  0  0  0  0  0  0  0  0  0  0
    0.6608    1.3180   -1.9386 H   0  0  0  0  0  0  0  0  0  0  0  0
    0.0086    0.5795    0.3620 H   0  0  0  0  0  0  0  0  0  0  0  0
    1.4129   -1.6437   -1.2137 H   0  0  0  0  0  0  0  0  0  0  0  0
    1.4970   -1.4397    0.5654 H   0  0  0  0  0  0  0  0  0  0  0  0
    3.6140   -1.6461   -1.3824 H   0  0  0  0  0  0  0  0  0  0  0  0
    4.3962   -0.0693   -1.5813 H   0  0  0  0  0  0  0  0  0  0  0  0
    5.5540   -1.5172    0.1155 H   0  0  0  0  0  0  0  0  0  0  0  0
    4.0534   -1.5493    1.1013 H   0  0  0  0  0  0  0  0  0  0  0  0
    5.1297    0.2222    2.1571 H   0  0  0  0  0  0  0  0  0  0  0  0
    6.0695    0.6839    0.7017 H   0  0  0  0  0  0  0  0  0  0  0  0
    4.0956    2.2597    1.6061 H   0  0  0  0  0  0  0  0  0  0  0  0
    4.3812    2.0617   -0.1562 H   0  0  0  0  0  0  0  0  0  0  0  0
    2.3346    0.5072    1.5394 H   0  0  0  0  0  0  0  0  0  0  0  0
    1.9793    1.8574    0.4062 H   0  0  0  0  0  0  0  0  0  0  0  0
   -3.4000   -2.6319   -0.2651 H   0  0  0  0  0  0  0  0  0  0  0  0
   -5.6948   -1.9163    0.1696 H   0  0  0  0  0  0  0  0  0  0  0  0
   -6.7842    0.4748    1.8865 H   0  0  0  0  0  0  0  0  0  0  0  0
   -6.7466    1.6440    0.5072 H   0  0  0  0  0  0  0  0  0  0  0  0
   -7.3159   -0.0389    0.2359 H   0  0  0  0  0  0  0  0  0  0  0  0
   -4.3310    2.1149    0.8258 H   0  0  0  0  0  0  0  0  0  0  0  0
   -2.0397    1.4246    0.4051 H   0  0  0  0  0  0  0  0  0  0  0  0
  1  2  1  0
  2  3  1  0
  3  4  1  0
  4  5  1  0
  5  6  1  0
  6  7  1  0
  7  8  1  0
  8  9  1  0
  9  4  1  0
  2 10  1  0
 10 11  2  0
 10 12  1  0
 12 13  2  0
 13 14  1  0
 14 15  2  0
 15 16  1  0
 15 17  1  0
 17 18  2  0
 18 12  1  0
  1 19  1  0
  1 20  1  0
  1 21  1  0
  2 22  1  0
  3 23  1  0
  3 24  1  0
  5 25  1  0
  5 26  1  0
  6 27  1  0
  6 28  1  0
  7 29  1  0
  7 30  1  0
  8 31  1  0
  8 32  1  0
  9 33  1  0
  9 34  1  0
 13 35  1  0
 14 36  1  0
 16 37  1  0
 16 38  1  0
 16 39  1  0
 17 40  1  0
 18 41  1  0
M  END
> <ID>
HT2086

> <Class>
0.0

> <Clusters>
91

> <Fold>
4

$$$$