
     RDKit          3D

 59 62  0  0  0  0  0  0  0  0999 V2000
    0.9722   -2.1297    0.2254 C   0  0  0  0  0  0  0  0  0  0  0  0
    0.9426   -0.7309   -0.4806 C   0  0  2  0  0  0  0  0  0  0  0  0
    0.9062    0.3994    0.5881 C   0  0  0  0  0  0  0  0  0  0  0  0
   -0.4235    0.4345    1.3930 C   0  0  2  0  0  0  0  0  0  0  0  0
   -0.4646   -0.6218    2.3150 O   0  0  0  0  0  0  0  0  0  0  0  0
   -1.6931    0.4381    0.4700 C   0  0  1  0  0  0  0  0  0  0  0  0
   -1.6355   -0.6636   -0.6484 C   0  0  1  0  0  0  0  0  0  0  0  0
   -2.8032   -0.4868   -1.6467 C   0  0  0  0  0  0  0  0  0  0  0  0
   -4.1577   -0.5078   -0.9413 C   0  0  0  0  0  0  0  0  0  0  0  0
   -4.1778    0.5399    0.1424 C   0  0  0  0  0  0  0  0  0  0  0  0
   -5.1119    1.5043    0.1125 C   0  0  0  0  0  0  0  0  0  0  0  0
   -5.1128    2.5802    1.1025 C   0  0  0  0  0  0  0  0  0  0  0  0
   -6.0079    3.4648    1.0771 O   0  0  0  0  0  0  0  0  0  0  0  0
   -4.0616    2.6281    2.1152 C   0  0  0  0  0  0  0  0  0  0  0  0
   -3.1229    1.6823    2.1634 C   0  0  0  0  0  0  0  0  0  0  0  0
   -3.0834    0.4777    1.2210 C   0  0  2  0  0  0  0  0  0  0  0  0
   -3.3512   -0.7751    2.0912 C   0  0  0  0  0  0  0  0  0  0  0  0
   -0.2827   -0.5411   -1.3896 C   0  0  2  0  0  0  0  0  0  0  0  0
   -0.0279   -1.4518   -2.5829 C   0  0  0  0  0  0  0  0  0  0  0  0
    1.5018   -1.4610   -2.7461 C   0  0  0  0  0  0  0  0  0  0  0  0
    2.1021   -0.6680   -1.5416 C   0  0  1  0  0  0  0  0  0  0  0  0
    2.3082    0.6521   -2.0042 O   0  0  0  0  0  0  0  0  0  0  0  0
    3.4384   -1.2676   -1.0588 C   0  0  0  0  0  0  0  0  0  0  0  0
    3.7517   -2.4117   -1.3693 O   0  0  0  0  0  0  0  0  0  0  0  0
    4.4030   -0.4831   -0.2104 C   0  0  0  0  0  0  0  0  0  0  0  0
    5.2374    0.2761   -1.0537 O   0  0  0  0  0  0  0  0  0  0  0  0
    6.1915    1.3053   -0.0812 P   0  0  0  0  0  0  0  0  0  0  0  0
    5.3075    2.3309    0.5997 O   0  0  0  0  0  0  0  0  0  0  0  0
    7.0234    0.4051    1.0912 O   0  0  0  0  0  0  0  0  0  0  0  0
    7.3109    2.1057   -1.0712 O   0  0  0  0  0  0  0  0  0  0  0  0
    0.0560   -2.3659    0.7913 H   0  0  0  0  0  0  0  0  0  0  0  0
    1.1040   -2.9582   -0.5001 H   0  0  0  0  0  0  0  0  0  0  0  0
    1.8189   -2.1771    0.9426 H   0  0  0  0  0  0  0  0  0  0  0  0
    1.7522    0.2894    1.2968 H   0  0  0  0  0  0  0  0  0  0  0  0
    1.0125    1.3923    0.1035 H   0  0  0  0  0  0  0  0  0  0  0  0
   -0.4122    1.3951    1.9570 H   0  0  0  0  0  0  0  0  0  0  0  0
    0.1846   -0.4063    3.0343 H   0  0  0  0  0  0  0  0  0  0  0  0
   -1.6347    1.4129   -0.0710 H   0  0  0  0  0  0  0  0  0  0  0  0
   -1.7318   -1.6741   -0.2091 H   0  0  0  0  0  0  0  0  0  0  0  0
   -2.6943    0.4744   -2.1969 H   0  0  0  0  0  0  0  0  0  0  0  0
   -2.7898   -1.3102   -2.3930 H   0  0  0  0  0  0  0  0  0  0  0  0
   -4.3353   -1.5105   -0.4976 H   0  0  0  0  0  0  0  0  0  0  0  0
   -4.9562   -0.3381   -1.6971 H   0  0  0  0  0  0  0  0  0  0  0  0
   -5.8684    1.5151   -0.6630 H   0  0  0  0  0  0  0  0  0  0  0  0
   -4.0504    3.4336    2.8397 H   0  0  0  0  0  0  0  0  0  0  0  0
   -2.3971    1.7430    2.9652 H   0  0  0  0  0  0  0  0  0  0  0  0
   -3.1285   -1.7175    1.5533 H   0  0  0  0  0  0  0  0  0  0  0  0
   -4.4208   -0.8045    2.3961 H   0  0  0  0  0  0  0  0  0  0  0  0
   -2.7608   -0.7629    3.0309 H   0  0  0  0  0  0  0  0  0  0  0  0
   -0.2517    0.4980   -1.8005 H   0  0  0  0  0  0  0  0  0  0  0  0
   -0.4052   -2.4773   -2.3751 H   0  0  0  0  0  0  0  0  0  0  0  0
   -0.5235   -1.0606   -3.4989 H   0  0  0  0  0  0  0  0  0  0  0  0
    1.7905   -0.9925   -3.7133 H   0  0  0  0  0  0  0  0  0  0  0  0
    1.8369   -2.5191   -2.7838 H   0  0  0  0  0  0  0  0  0  0  0  0
    2.7221    1.1920   -1.2851 H   0  0  0  0  0  0  0  0  0  0  0  0
    3.8312    0.1606    0.4882 H   0  0  0  0  0  0  0  0  0  0  0  0
    5.0117   -1.1946    0.3930 H   0  0  0  0  0  0  0  0  0  0  0  0
    7.5167    1.0767    1.6273 H   0  0  0  0  0  0  0  0  0  0  0  0
    7.8441    2.6616   -0.4498 H   0  0  0  0  0  0  0  0  0  0  0  0
  2  1  1  1
  2  3  1  0
  3  4  1  0
  4  5  1  0
  4  6  1  0
  6  7  1  0
  7  8  1  0
  8  9  1  0
  9 10  1  0
 10 11  2  0
 11 12  1  0
 12 13  2  0
 12 14  1  0
 14 15  2  0
 15 16  1  0
 16  6  1  0
 16 10  1  0
 16 17  1  1
  7 18  1  0
 18  2  1  0
 18 19  1  0
 19 20  1  0
 20 21  1  0
 21  2  1  0
 21 22  1  6
 21 23  1  0
 23 24  2  0
 23 25  1  0
 25 26  1  0
 26 27  1  0
 27 28  2  0
 27 29  1  0
 27 30  1  0
  1 31  1  0
  1 32  1  0
  1 33  1  0
  3 34  1  0
  3 35  1  0
  4 36  1  1
  5 37  1  0
  6 38  1  6
  7 39  1  1
  8 40  1  0
  8 41  1  0
  9 42  1  0
  9 43  1  0
 11 44  1  0
 14 45  1  0
 15 46  1  0
 17 47  1  0
 17 48  1  0
 17 49  1  0
 18 50  1  6
 19 51  1  0
 19 52  1  0
 20 53  1  0
 20 54  1  0
 22 55  1  0
 25 56  1  0
 25 57  1  0
 29 58  1  0
 30 59  1  0
M  END
> <ID>
HT1732

> <Class>
0.0

> <Clusters>
202

> <Fold>
4

$$$$