
     RDKit          3D

 52 55  0  0  0  0  0  0  0  0999 V2000
    3.1307   -1.5041    2.4873 O   0  0  0  0  0  0  0  0  0  0  0  0
    2.7546   -0.7454    1.5547 C   0  0  0  0  0  0  0  0  0  0  0  0
    1.2792   -0.4967    1.4075 C   0  0  0  0  0  0  0  0  0  0  0  0
    3.7199   -0.2317    0.5431 C   0  0  0  0  0  0  0  0  0  0  0  0
    5.1183   -0.4716    0.6443 C   0  0  0  0  0  0  0  0  0  0  0  0
    3.2151    0.4215   -0.6145 C   0  0  0  0  0  0  0  0  0  0  0  0
    5.9432   -0.2411   -0.4567 C   0  0  0  0  0  0  0  0  0  0  0  0
    5.7355   -0.9112    1.8177 O   0  0  0  0  0  0  0  0  0  0  0  0
    1.7611    0.8724   -0.7006 C   0  0  0  0  0  0  0  0  0  0  0  0
    4.0723    0.6048   -1.7278 C   0  0  0  0  0  0  0  0  0  0  0  0
    5.4215    0.2657   -1.6399 C   0  0  0  0  0  0  0  0  0  0  0  0
    1.0160    0.8183    0.6604 C   0  0  0  0  0  0  0  0  0  0  0  0
    1.7271    2.2034   -1.1589 O   0  0  0  0  0  0  0  0  0  0  0  0
    3.4898    1.2062   -3.2794 Cl  0  0  0  0  0  0  0  0  0  0  0  0
   -0.5126    1.0958    0.4934 C   0  0  0  0  0  0  0  0  0  0  0  0
   -1.4506   -0.1098    0.8083 C   0  0  0  0  0  0  0  0  0  0  0  0
   -0.8757   -1.4520    0.2492 C   0  0  0  0  0  0  0  0  0  0  0  0
   -2.9187    0.0710    0.3054 C   0  0  0  0  0  0  0  0  0  0  0  0
   -0.9593   -1.4668   -1.2735 C   0  0  0  0  0  0  0  0  0  0  0  0
    0.5673   -1.6316    0.7055 C   0  0  0  0  0  0  0  0  0  0  0  0
   -1.6373   -2.5381    0.7246 O   0  0  0  0  0  0  0  0  0  0  0  0
   -3.6960    1.1833    0.9244 N   0  0  0  0  0  0  0  0  0  0  0  0
   -2.9874    0.0804   -1.2060 C   0  0  0  0  0  0  0  0  0  0  0  0
   -0.1200   -2.0836   -1.9164 O   0  0  0  0  0  0  0  0  0  0  0  0
   -2.0849   -0.7993   -2.0416 C   0  0  0  0  0  0  0  0  0  0  0  0
    1.1347   -2.6994    0.5148 O   0  0  0  0  0  0  0  0  0  0  0  0
   -3.8939    1.0208    2.3734 C   0  0  0  0  0  0  0  0  0  0  0  0
   -3.2981    2.5628    0.5833 C   0  0  0  0  0  0  0  0  0  0  0  0
   -3.8243    0.7685   -1.7737 O   0  0  0  0  0  0  0  0  0  0  0  0
   -2.9109   -1.8484   -2.7278 C   0  0  0  0  0  0  0  0  0  0  0  0
   -2.9758   -1.8788   -3.9860 O   0  0  0  0  0  0  0  0  0  0  0  0
   -3.6065   -2.7901   -1.9742 O   0  0  0  0  0  0  0  0  0  0  0  0
    0.8496   -0.4040    2.4299 H   0  0  0  0  0  0  0  0  0  0  0  0
    7.0031   -0.4533   -0.3913 H   0  0  0  0  0  0  0  0  0  0  0  0
    5.3249   -0.8156    2.7358 H   0  0  0  0  0  0  0  0  0  0  0  0
    1.2553    0.1934   -1.4246 H   0  0  0  0  0  0  0  0  0  0  0  0
    6.0765    0.4133   -2.4894 H   0  0  0  0  0  0  0  0  0  0  0  0
    1.4394    1.6352    1.2911 H   0  0  0  0  0  0  0  0  0  0  0  0
    1.0304    2.2612   -1.8639 H   0  0  0  0  0  0  0  0  0  0  0  0
   -0.7265    1.4711   -0.5280 H   0  0  0  0  0  0  0  0  0  0  0  0
   -0.7612    1.9142    1.1961 H   0  0  0  0  0  0  0  0  0  0  0  0
   -1.4861   -0.2096    1.9147 H   0  0  0  0  0  0  0  0  0  0  0  0
   -3.4578   -0.8626    0.5798 H   0  0  0  0  0  0  0  0  0  0  0  0
   -1.5785   -2.5447    1.7165 H   0  0  0  0  0  0  0  0  0  0  0  0
   -1.6120   -0.1456   -2.8083 H   0  0  0  0  0  0  0  0  0  0  0  0
   -4.2371   -0.0090    2.6102 H   0  0  0  0  0  0  0  0  0  0  0  0
   -2.9583    1.2330    2.9340 H   0  0  0  0  0  0  0  0  0  0  0  0
   -4.6818    1.7211    2.7242 H   0  0  0  0  0  0  0  0  0  0  0  0
   -2.6647    3.0232    1.3710 H   0  0  0  0  0  0  0  0  0  0  0  0
   -2.7683    2.6232   -0.3879 H   0  0  0  0  0  0  0  0  0  0  0  0
   -4.2138    3.1836    0.4938 H   0  0  0  0  0  0  0  0  0  0  0  0
   -4.1673   -3.5037   -2.4238 H   0  0  0  0  0  0  0  0  0  0  0  0
  1  2  2  0
  2  3  1  0
  4  2  1  0
  5  4  2  0
  4  6  1  0
  7  5  1  0
  5  8  1  0
  9  6  1  0
  6 10  2  0
 11  7  2  0
 12  9  1  0
  9 13  1  0
 10 14  1  0
 10 11  1  0
  3 12  1  0
 15 12  1  0
 16 15  1  0
 17 16  1  0
 18 16  1  0
 17 19  1  0
 20 17  1  0
 17 21  1  0
 22 18  1  0
 23 18  1  0
 24 19  2  0
 19 25  1  0
  3 20  1  0
 20 26  2  0
 27 22  1  0
 22 28  1  0
 25 23  1  0
 23 29  2  0
 25 30  1  0
 30 31  2  0
 30 32  1  0
  3 33  1  0
  7 34  1  0
  8 35  1  0
  9 36  1  0
 11 37  1  0
 12 38  1  0
 13 39  1  0
 15 40  1  0
 15 41  1  0
 16 42  1  0
 18 43  1  0
 21 44  1  0
 25 45  1  0
 27 46  1  0
 27 47  1  0
 27 48  1  0
 28 49  1  0
 28 50  1  0
 28 51  1  0
 32 52  1  0
M  END
> <ID>
HT3854

> <Class>
0.0

> <Clusters>
225

> <Fold>
4

$$$$