
     RDKit          3D

 45 48  0  0  0  0  0  0  0  0999 V2000
    2.1076   -2.7730    1.1555 O   0  0  0  0  0  0  0  0  0  0  0  0
    2.2446   -1.8164    0.3467 C   0  0  0  0  0  0  0  0  0  0  0  0
    3.6332   -1.3165    0.0039 C   0  0  0  0  0  0  0  0  0  0  0  0
    1.0530   -1.1722   -0.2301 C   0  0  0  0  0  0  0  0  0  0  0  0
    1.1236   -0.2743   -1.1848 C   0  0  0  0  0  0  0  0  0  0  0  0
   -0.2846   -1.4279    0.1684 N   0  0  0  0  0  0  0  0  0  0  0  0
   -0.2395    0.2480   -1.5278 C   0  0  0  0  0  0  0  0  0  0  0  0
    2.4023    0.1183   -1.7920 C   0  0  0  0  0  0  0  0  0  0  0  0
   -1.1873   -0.7342   -0.7400 C   0  0  0  0  0  0  0  0  0  0  0  0
   -0.7003   -1.3594    1.5604 C   0  0  0  0  0  0  0  0  0  0  0  0
   -0.3594    1.7336   -1.1398 C   0  0  0  0  0  0  0  0  0  0  0  0
    3.6582   -0.4510   -1.2452 C   0  0  0  0  0  0  0  0  0  0  0  0
    2.4220    0.9161   -2.7675 O   0  0  0  0  0  0  0  0  0  0  0  0
   -1.7482   -1.6988   -1.6232 O   0  0  0  0  0  0  0  0  0  0  0  0
   -2.2514   -0.1085    0.1926 C   0  0  0  0  0  0  0  0  0  0  0  0
   -1.9502   -0.4969    1.5709 C   0  0  0  0  0  0  0  0  0  0  0  0
   -0.1002    1.9120    0.2510 O   0  0  0  0  0  0  0  0  0  0  0  0
    4.7995   -0.1963   -1.8076 N   0  0  0  0  0  0  0  0  0  0  0  0
   -2.8157   -1.1704   -2.3898 C   0  0  0  0  0  0  0  0  0  0  0  0
   -3.0862   -1.1348    0.8686 N   0  0  0  0  0  0  0  0  0  0  0  0
   -0.1592    3.1573    0.8791 C   0  0  0  0  0  0  0  0  0  0  0  0
   -4.3688   -0.5696    1.3159 C   0  0  0  0  0  0  0  0  0  0  0  0
   -0.4353    4.1977    0.2226 O   0  0  0  0  0  0  0  0  0  0  0  0
    0.0933    3.2491    2.2781 N   0  0  0  0  0  0  0  0  0  0  0  0
    4.2084   -0.5377    1.1903 C   0  0  0  0  0  0  0  0  0  0  0  0
    4.2750   -2.2064   -0.1800 H   0  0  0  0  0  0  0  0  0  0  0  0
   -0.3834    0.1525   -2.6258 H   0  0  0  0  0  0  0  0  0  0  0  0
    0.0823   -0.8764    2.1853 H   0  0  0  0  0  0  0  0  0  0  0  0
   -0.9185   -2.3776    1.9456 H   0  0  0  0  0  0  0  0  0  0  0  0
   -1.3755    2.1050   -1.3916 H   0  0  0  0  0  0  0  0  0  0  0  0
    0.3687    2.3317   -1.7293 H   0  0  0  0  0  0  0  0  0  0  0  0
   -2.7414    0.8717    0.0040 H   0  0  0  0  0  0  0  0  0  0  0  0
   -2.1768    0.2395    2.3739 H   0  0  0  0  0  0  0  0  0  0  0  0
    4.8882    0.3987   -2.6614 H   0  0  0  0  0  0  0  0  0  0  0  0
   -2.8934   -1.7493   -3.3326 H   0  0  0  0  0  0  0  0  0  0  0  0
   -3.7723   -1.2933   -1.8400 H   0  0  0  0  0  0  0  0  0  0  0  0
   -2.6827   -0.1002   -2.6629 H   0  0  0  0  0  0  0  0  0  0  0  0
   -4.7378   -1.1554    2.1833 H   0  0  0  0  0  0  0  0  0  0  0  0
   -4.3208    0.5030    1.6157 H   0  0  0  0  0  0  0  0  0  0  0  0
   -5.1108   -0.6667    0.4962 H   0  0  0  0  0  0  0  0  0  0  0  0
    0.3169    2.3896    2.8270 H   0  0  0  0  0  0  0  0  0  0  0  0
    0.0535    4.1719    2.7649 H   0  0  0  0  0  0  0  0  0  0  0  0
    4.2323   -1.1796    2.0970 H   0  0  0  0  0  0  0  0  0  0  0  0
    3.5887    0.3607    1.4026 H   0  0  0  0  0  0  0  0  0  0  0  0
    5.2485   -0.2139    0.9719 H   0  0  0  0  0  0  0  0  0  0  0  0
  1  2  2  0
  2  3  1  0
  4  2  1  0
  5  4  2  0
  4  6  1  0
  7  5  1  0
  8  5  1  0
  6  9  1  0
  6 10  1  0
  9  7  1  0
  7 11  1  0
 12  8  1  0
  8 13  2  0
 14  9  1  0
 15  9  1  0
 10 16  1  0
 11 17  1  0
  3 12  1  0
 12 18  2  3
 19 14  1  0
 16 15  1  0
 15 20  1  0
 20 16  1  0
 17 21  1  0
 20 22  1  0
 21 23  2  0
 21 24  1  0
  3 25  1  0
  3 26  1  0
  7 27  1  0
 10 28  1  0
 10 29  1  0
 11 30  1  0
 11 31  1  0
 15 32  1  0
 16 33  1  0
 18 34  1  0
 19 35  1  0
 19 36  1  0
 19 37  1  0
 22 38  1  0
 22 39  1  0
 22 40  1  0
 24 41  1  0
 24 42  1  0
 25 43  1  0
 25 44  1  0
 25 45  1  0
M  END
> <ID>
HT3593

> <Class>
0.0

> <Clusters>
225

> <Fold>
4

$$$$