
     RDKit          3D

 30 30  0  0  0  0  0  0  0  0999 V2000
    4.8059   -1.3941   -1.1340 N   0  0  0  0  0  0  0  0  0  0  0  0
    4.6517   -0.1961   -0.3691 C   0  0  0  0  0  0  0  0  0  0  0  0
    5.5958    0.6880   -0.3800 N   0  0  0  0  0  0  0  0  0  0  0  0
    3.5304   -0.0210    0.5097 N   0  0  0  0  0  0  0  0  0  0  0  0
    2.2916   -0.3441    0.2678 C   0  0  0  0  0  0  0  0  0  0  0  0
    1.8807   -0.7895   -1.0352 N   0  0  0  0  0  0  0  0  0  0  0  0
    1.3295   -0.1841    1.3242 N   0  0  0  0  0  0  0  0  0  0  0  0
   -0.1124   -0.3652    1.1615 C   0  0  0  0  0  0  0  0  0  0  0  0
   -0.7162    0.7980    0.3662 C   0  0  0  0  0  0  0  0  0  0  0  0
   -2.2041    0.6260    0.2038 C   0  0  0  0  0  0  0  0  0  0  0  0
   -3.0995    1.4698    0.8833 C   0  0  0  0  0  0  0  0  0  0  0  0
   -4.4794    1.3075    0.7239 C   0  0  0  0  0  0  0  0  0  0  0  0
   -4.9751    0.3064   -0.1159 C   0  0  0  0  0  0  0  0  0  0  0  0
   -4.0917   -0.5336   -0.7992 C   0  0  0  0  0  0  0  0  0  0  0  0
   -2.7113   -0.3751   -0.6427 C   0  0  0  0  0  0  0  0  0  0  0  0
    5.6187   -1.5071   -1.7800 H   0  0  0  0  0  0  0  0  0  0  0  0
    4.1554   -2.2001   -1.0043 H   0  0  0  0  0  0  0  0  0  0  0  0
    5.5362    1.5526    0.2030 H   0  0  0  0  0  0  0  0  0  0  0  0
    0.9471   -1.2250   -1.1939 H   0  0  0  0  0  0  0  0  0  0  0  0
    2.4675   -0.6145   -1.8799 H   0  0  0  0  0  0  0  0  0  0  0  0
    1.6809    0.0636    2.2773 H   0  0  0  0  0  0  0  0  0  0  0  0
   -0.3213   -1.3428    0.6782 H   0  0  0  0  0  0  0  0  0  0  0  0
   -0.5867   -0.3901    2.1673 H   0  0  0  0  0  0  0  0  0  0  0  0
   -0.4905    1.7474    0.9000 H   0  0  0  0  0  0  0  0  0  0  0  0
   -0.2496    0.8687   -0.6389 H   0  0  0  0  0  0  0  0  0  0  0  0
   -2.7317    2.2492    1.5390 H   0  0  0  0  0  0  0  0  0  0  0  0
   -5.1647    1.9581    1.2516 H   0  0  0  0  0  0  0  0  0  0  0  0
   -6.0433    0.1826   -0.2382 H   0  0  0  0  0  0  0  0  0  0  0  0
   -4.4765   -1.3067   -1.4515 H   0  0  0  0  0  0  0  0  0  0  0  0
   -2.0375   -1.0291   -1.1824 H   0  0  0  0  0  0  0  0  0  0  0  0
  1  2  1  0
  2  3  2  3
  2  4  1  0
  4  5  2  3
  5  6  1  0
  5  7  1  0
  7  8  1  0
  8  9  1  0
  9 10  1  0
 10 11  2  0
 11 12  1  0
 12 13  2  0
 13 14  1  0
 14 15  2  0
 15 10  1  0
  1 16  1  0
  1 17  1  0
  3 18  1  0
  6 19  1  0
  6 20  1  0
  7 21  1  0
  8 22  1  0
  8 23  1  0
  9 24  1  0
  9 25  1  0
 11 26  1  0
 12 27  1  0
 13 28  1  0
 14 29  1  0
 15 30  1  0
M  END
> <ID>
HT1646

> <Class>
0.0

> <Clusters>
246

> <Fold>
4

$$$$