
     RDKit          3D

 46 49  0  0  0  0  0  0  0  0999 V2000
    6.7251    0.2334    3.3835 C   0  0  0  0  0  0  0  0  0  0  0  0
    5.4643    0.4385    2.6146 C   0  0  0  0  0  0  0  0  0  0  0  0
    4.4492    0.8943    3.2060 O   0  0  0  0  0  0  0  0  0  0  0  0
    5.4460    0.1661    1.2408 O   0  0  0  0  0  0  0  0  0  0  0  0
    4.2976    0.0990    0.4410 C   0  0  0  0  0  0  0  0  0  0  0  0
    2.9768   -0.0652    0.8643 C   0  0  0  0  0  0  0  0  0  0  0  0
    2.0747   -0.1057   -0.2061 C   0  0  0  0  0  0  0  0  0  0  0  0
    0.5922   -0.2918   -0.0735 C   0  0  0  0  0  0  0  0  0  0  0  0
   -0.0894    0.1474   -1.3176 N   0  0  0  0  0  0  0  0  0  0  0  0
    0.4880   -0.4880   -2.5262 C   0  0  0  0  0  0  0  0  0  0  0  0
    1.9359   -0.0170   -2.7441 C   0  0  0  0  0  0  0  0  0  0  0  0
    2.6821   -0.0125   -1.4478 C   0  0  0  0  0  0  0  0  0  0  0  0
    4.3403    0.1630   -1.2423 S   0  0  0  0  0  0  0  0  0  0  0  0
   -1.5764    0.0912   -1.2807 C   0  0  0  0  0  0  0  0  0  0  0  0
   -2.1769   -1.3107   -1.2291 C   0  0  0  0  0  0  0  0  0  0  0  0
   -1.4767   -2.2940   -1.0376 O   0  0  0  0  0  0  0  0  0  0  0  0
   -3.6681   -1.4662   -1.4352 C   0  0  0  0  0  0  0  0  0  0  0  0
   -4.2038   -2.8720   -1.6734 C   0  0  0  0  0  0  0  0  0  0  0  0
   -4.3733   -2.2143   -0.3131 C   0  0  0  0  0  0  0  0  0  0  0  0
   -2.1209    1.0055   -0.1912 C   0  0  0  0  0  0  0  0  0  0  0  0
   -2.4831    0.5070    1.0781 C   0  0  0  0  0  0  0  0  0  0  0  0
   -2.9573    1.3689    2.0704 C   0  0  0  0  0  0  0  0  0  0  0  0
   -3.0639    2.7373    1.8175 C   0  0  0  0  0  0  0  0  0  0  0  0
   -2.6882    3.2485    0.5740 C   0  0  0  0  0  0  0  0  0  0  0  0
   -2.2126    2.3928   -0.4249 C   0  0  0  0  0  0  0  0  0  0  0  0
   -1.8359    2.9197   -1.6179 F   0  0  0  0  0  0  0  0  0  0  0  0
    7.5231   -0.1544    2.7160 H   0  0  0  0  0  0  0  0  0  0  0  0
    6.5495   -0.4988    4.1991 H   0  0  0  0  0  0  0  0  0  0  0  0
    7.0573    1.1980    3.8209 H   0  0  0  0  0  0  0  0  0  0  0  0
    2.6681   -0.1762    1.8939 H   0  0  0  0  0  0  0  0  0  0  0  0
    0.2508    0.3203    0.7867 H   0  0  0  0  0  0  0  0  0  0  0  0
    0.3941   -1.3591    0.1486 H   0  0  0  0  0  0  0  0  0  0  0  0
   -0.1008   -0.2228   -3.4316 H   0  0  0  0  0  0  0  0  0  0  0  0
    0.4831   -1.5954   -2.4271 H   0  0  0  0  0  0  0  0  0  0  0  0
    2.4403   -0.6982   -3.4622 H   0  0  0  0  0  0  0  0  0  0  0  0
    1.9405    1.0116   -3.1635 H   0  0  0  0  0  0  0  0  0  0  0  0
   -1.9444    0.5105   -2.2440 H   0  0  0  0  0  0  0  0  0  0  0  0
   -4.2608   -0.6256   -1.8558 H   0  0  0  0  0  0  0  0  0  0  0  0
   -3.4619   -3.6983   -1.6849 H   0  0  0  0  0  0  0  0  0  0  0  0
   -5.1389   -2.9110   -2.2709 H   0  0  0  0  0  0  0  0  0  0  0  0
   -5.4092   -1.8708   -0.1075 H   0  0  0  0  0  0  0  0  0  0  0  0
   -3.7250   -2.6505    0.4773 H   0  0  0  0  0  0  0  0  0  0  0  0
   -2.3850   -0.5453    1.3096 H   0  0  0  0  0  0  0  0  0  0  0  0
   -3.2357    0.9757    3.0396 H   0  0  0  0  0  0  0  0  0  0  0  0
   -3.4294    3.4032    2.5885 H   0  0  0  0  0  0  0  0  0  0  0  0
   -2.7612    4.3119    0.3855 H   0  0  0  0  0  0  0  0  0  0  0  0
  1  2  1  0
  2  3  2  0
  2  4  1  0
  4  5  1  0
  5  6  2  0
  6  7  1  0
  7  8  1  0
  8  9  1  0
  9 10  1  0
 10 11  1  0
 11 12  1  0
 12  7  2  0
 12 13  1  0
 13  5  1  0
  9 14  1  0
 14 15  1  0
 15 16  2  0
 15 17  1  0
 17 18  1  0
 18 19  1  0
 19 17  1  0
 14 20  1  0
 20 21  2  0
 21 22  1  0
 22 23  2  0
 23 24  1  0
 24 25  2  0
 25 20  1  0
 25 26  1  0
  1 27  1  0
  1 28  1  0
  1 29  1  0
  6 30  1  0
  8 31  1  0
  8 32  1  0
 10 33  1  0
 10 34  1  0
 11 35  1  0
 11 36  1  0
 14 37  1  0
 17 38  1  0
 18 39  1  0
 18 40  1  0
 19 41  1  0
 19 42  1  0
 21 43  1  0
 22 44  1  0
 23 45  1  0
 24 46  1  0
M  END
> <ID>
HT1724

> <Class>
0.0

> <Clusters>
61

> <Fold>
4

$$$$