
     RDKit          3D

 17 18  0  0  0  0  0  0  0  0999 V2000
   -3.4883   -1.4733   -0.3643 O   0  0  0  0  0  0  0  0  0  0  0  0
   -2.4229   -0.8200   -0.2144 C   0  0  0  0  0  0  0  0  0  0  0  0
   -1.2504   -1.4431   -0.3045 O   0  0  0  0  0  0  0  0  0  0  0  0
   -0.0899   -0.8088   -0.1559 C   0  0  0  0  0  0  0  0  0  0  0  0
    1.1131   -1.5157   -0.2613 C   0  0  0  0  0  0  0  0  0  0  0  0
    2.3330   -0.8493   -0.1052 C   0  0  0  0  0  0  0  0  0  0  0  0
    2.3561    0.5249    0.1567 C   0  0  0  0  0  0  0  0  0  0  0  0
    1.1595    1.2413    0.2640 C   0  0  0  0  0  0  0  0  0  0  0  0
   -0.0670    0.5792    0.1085 C   0  0  0  0  0  0  0  0  0  0  0  0
   -1.2848    1.2588    0.2083 C   0  0  0  0  0  0  0  0  0  0  0  0
   -2.4770    0.5538    0.0455 C   0  0  0  0  0  0  0  0  0  0  0  0
    1.1034   -2.5793   -0.4637 H   0  0  0  0  0  0  0  0  0  0  0  0
    3.2621   -1.3985   -0.1872 H   0  0  0  0  0  0  0  0  0  0  0  0
    3.3030    1.0352    0.2765 H   0  0  0  0  0  0  0  0  0  0  0  0
    1.1920    2.3050    0.4670 H   0  0  0  0  0  0  0  0  0  0  0  0
   -1.3139    2.3229    0.4099 H   0  0  0  0  0  0  0  0  0  0  0  0
   -3.4279    1.0669    0.1201 H   0  0  0  0  0  0  0  0  0  0  0  0
  1  2  2  0
  2  3  1  0
  3  4  1  0
  4  5  2  0
  5  6  1  0
  6  7  2  0
  7  8  1  0
  8  9  2  0
  9  4  1  0
  9 10  1  0
 10 11  2  0
 11  2  1  0
  5 12  1  0
  6 13  1  0
  7 14  1  0
  8 15  1  0
 10 16  1  0
 11 17  1  0
M  END
> <ID>
HT2608

> <Class>
0.0

> <Clusters>
255

> <Fold>
4

$$$$