
     RDKit          3D

 28 29  0  0  0  0  0  0  0  0999 V2000
   -1.3789   -2.2958    0.3035 C   0  0  0  0  0  0  0  0  0  0  0  0
   -1.8346   -0.9151    0.1140 N   0  0  0  0  0  0  0  0  0  0  0  0
   -3.2700   -0.6742   -0.0900 C   0  0  0  0  0  0  0  0  0  0  0  0
   -3.6374    0.7620    0.2727 C   0  0  0  0  0  0  0  0  0  0  0  0
   -2.7240    1.7282   -0.4770 C   0  0  0  0  0  0  0  0  0  0  0  0
   -1.3182    1.3799   -0.2811 N   0  0  0  0  0  0  0  0  0  0  0  0
   -0.8884    0.1772   -0.0194 C   0  0  0  0  0  0  0  0  0  0  0  0
    0.5705   -0.0431    0.1650 C   0  0  0  0  0  0  0  0  0  0  0  0
    1.4726    0.9370    0.0097 C   0  0  0  0  0  0  0  0  0  0  0  0
    2.9235    0.7378    0.1900 C   0  0  0  0  0  0  0  0  0  0  0  0
    3.5958   -0.4341    0.5360 C   0  0  0  0  0  0  0  0  0  0  0  0
    4.9841   -0.2703    0.6224 C   0  0  0  0  0  0  0  0  0  0  0  0
    5.4137    1.0207    0.3476 C   0  0  0  0  0  0  0  0  0  0  0  0
    4.0639    1.9581   -0.0029 S   0  0  0  0  0  0  0  0  0  0  0  0
   -2.2315   -3.0082    0.2964 H   0  0  0  0  0  0  0  0  0  0  0  0
   -0.6902   -2.5830   -0.5190 H   0  0  0  0  0  0  0  0  0  0  0  0
   -0.8606   -2.3900    1.2807 H   0  0  0  0  0  0  0  0  0  0  0  0
   -3.8716   -1.3603    0.5453 H   0  0  0  0  0  0  0  0  0  0  0  0
   -3.5250   -0.8691   -1.1544 H   0  0  0  0  0  0  0  0  0  0  0  0
   -4.6977    0.9605    0.0053 H   0  0  0  0  0  0  0  0  0  0  0  0
   -3.5152    0.9103    1.3681 H   0  0  0  0  0  0  0  0  0  0  0  0
   -2.9565    1.7063   -1.5636 H   0  0  0  0  0  0  0  0  0  0  0  0
   -2.8973    2.7599   -0.1052 H   0  0  0  0  0  0  0  0  0  0  0  0
    0.9119   -1.0296    0.4358 H   0  0  0  0  0  0  0  0  0  0  0  0
    1.1461    1.9328   -0.2632 H   0  0  0  0  0  0  0  0  0  0  0  0
    3.1154   -1.3840    0.7232 H   0  0  0  0  0  0  0  0  0  0  0  0
    5.6596   -1.0752    0.8795 H   0  0  0  0  0  0  0  0  0  0  0  0
    6.4401    1.3614    0.3581 H   0  0  0  0  0  0  0  0  0  0  0  0
  1  2  1  0
  2  3  1  0
  3  4  1  0
  4  5  1  0
  5  6  1  0
  6  7  2  0
  7  2  1  0
  7  8  1  0
  8  9  2  3
  9 10  1  0
 10 11  2  0
 11 12  1  0
 12 13  2  0
 13 14  1  0
 14 10  1  0
  1 15  1  0
  1 16  1  0
  1 17  1  0
  3 18  1  0
  3 19  1  0
  4 20  1  0
  4 21  1  0
  5 22  1  0
  5 23  1  0
  8 24  1  0
  9 25  1  0
 11 26  1  0
 12 27  1  0
 13 28  1  0
M  END
> <ID>
HT1773

> <Class>
0.0

> <Clusters>
61

> <Fold>
4

$$$$