
     RDKit          3D

 47 53  0  0  0  0  0  0  0  0999 V2000
    1.6438    3.2889    1.4593 O   0  0  0  0  0  0  0  0  0  0  0  0
    0.8457    2.7010    0.6822 C   0  0  0  0  0  0  0  0  0  0  0  0
   -0.6214    3.0832    0.6611 C   0  0  0  0  0  0  0  0  0  0  0  0
   -1.5176    1.8483    0.4005 C   0  0  0  0  0  0  0  0  0  0  0  0
   -2.8715    2.2411    0.3015 O   0  0  0  0  0  0  0  0  0  0  0  0
   -3.8184    1.1777    0.4683 C   0  0  0  0  0  0  0  0  0  0  0  0
   -3.3111   -0.2585    0.6274 C   0  0  0  0  0  0  0  0  0  0  0  0
   -2.4743   -0.8552   -0.2489 C   0  0  0  0  0  0  0  0  0  0  0  0
   -2.1038   -2.3335   -0.1122 C   0  0  0  0  0  0  0  0  0  0  0  0
   -0.6496   -2.6159   -0.3532 N   0  0  0  0  0  0  0  0  0  0  0  0
    0.1064   -2.4854    0.8937 C   0  0  0  0  0  0  0  0  0  0  0  0
    0.4733   -1.0298    1.0045 C   0  0  0  0  0  0  0  0  0  0  0  0
    0.7881   -0.6261   -0.4556 C   0  0  0  0  0  0  0  0  0  0  0  0
    0.0275   -1.6943   -1.3143 C   0  0  0  0  0  0  0  0  0  0  0  0
   -1.0296   -1.0437   -2.2613 C   0  0  0  0  0  0  0  0  0  0  0  0
   -1.9067   -0.0784   -1.4113 C   0  0  0  0  0  0  0  0  0  0  0  0
   -1.0752    1.1612   -0.9222 C   0  0  0  0  0  0  0  0  0  0  0  0
    0.4141    0.8059   -0.9143 C   0  0  0  0  0  0  0  0  0  0  0  0
    1.3199    1.6925   -0.2212 N   0  0  0  0  0  0  0  0  0  0  0  0
    2.5186    0.9089   -0.1545 C   0  0  0  0  0  0  0  0  0  0  0  0
    3.8064    1.3649    0.1235 C   0  0  0  0  0  0  0  0  0  0  0  0
    4.8614    0.4370    0.0900 C   0  0  0  0  0  0  0  0  0  0  0  0
    4.6148   -0.9202   -0.2054 C   0  0  0  0  0  0  0  0  0  0  0  0
    3.3101   -1.3673   -0.4734 C   0  0  0  0  0  0  0  0  0  0  0  0
    2.2800   -0.4270   -0.4865 C   0  0  0  0  0  0  0  0  0  0  0  0
   -0.9024    3.5418    1.6343 H   0  0  0  0  0  0  0  0  0  0  0  0
   -0.7818    3.8418   -0.1351 H   0  0  0  0  0  0  0  0  0  0  0  0
   -1.3924    1.2326    1.3037 H   0  0  0  0  0  0  0  0  0  0  0  0
   -4.5020    1.1956   -0.4061 H   0  0  0  0  0  0  0  0  0  0  0  0
   -4.4446    1.4170    1.3532 H   0  0  0  0  0  0  0  0  0  0  0  0
   -3.6857   -0.8278    1.4732 H   0  0  0  0  0  0  0  0  0  0  0  0
   -2.4425   -2.7420    0.8657 H   0  0  0  0  0  0  0  0  0  0  0  0
   -2.6933   -2.8967   -0.8660 H   0  0  0  0  0  0  0  0  0  0  0  0
   -0.4510   -2.8373    1.7901 H   0  0  0  0  0  0  0  0  0  0  0  0
    1.0311   -3.1001    0.8219 H   0  0  0  0  0  0  0  0  0  0  0  0
   -0.3900   -0.5173    1.4290 H   0  0  0  0  0  0  0  0  0  0  0  0
    1.3117   -0.8985    1.7269 H   0  0  0  0  0  0  0  0  0  0  0  0
    0.7531   -2.2746   -1.9240 H   0  0  0  0  0  0  0  0  0  0  0  0
   -1.6589   -1.8317   -2.7300 H   0  0  0  0  0  0  0  0  0  0  0  0
   -0.5463   -0.5108   -3.1074 H   0  0  0  0  0  0  0  0  0  0  0  0
   -2.7495    0.2741   -2.0465 H   0  0  0  0  0  0  0  0  0  0  0  0
   -1.2064    1.9364   -1.7137 H   0  0  0  0  0  0  0  0  0  0  0  0
    0.7135    0.8944   -1.9904 H   0  0  0  0  0  0  0  0  0  0  0  0
    3.9938    2.4066    0.3472 H   0  0  0  0  0  0  0  0  0  0  0  0
    5.8709    0.7654    0.3001 H   0  0  0  0  0  0  0  0  0  0  0  0
    5.4340   -1.6274   -0.2031 H   0  0  0  0  0  0  0  0  0  0  0  0
    3.1074   -2.4166   -0.6418 H   0  0  0  0  0  0  0  0  0  0  0  0
  1  2  2  0
  2  3  1  0
  3  4  1  0
  4  5  1  0
  5  6  1  0
  6  7  1  0
  7  8  2  0
  8  9  1  0
  9 10  1  0
 10 11  1  0
 11 12  1  0
 12 13  1  0
 13 14  1  0
 14 10  1  0
 14 15  1  0
 15 16  1  0
 16  8  1  0
 16 17  1  0
 17  4  1  0
 17 18  1  0
 18 13  1  0
 18 19  1  0
 19  2  1  0
 19 20  1  0
 20 21  2  0
 21 22  1  0
 22 23  2  0
 23 24  1  0
 24 25  2  0
 25 13  1  0
 25 20  1  0
  3 26  1  0
  3 27  1  0
  4 28  1  0
  6 29  1  0
  6 30  1  0
  7 31  1  0
  9 32  1  0
  9 33  1  0
 11 34  1  0
 11 35  1  0
 12 36  1  0
 12 37  1  0
 14 38  1  0
 15 39  1  0
 15 40  1  0
 16 41  1  0
 17 42  1  0
 18 43  1  0
 21 44  1  0
 22 45  1  0
 23 46  1  0
 24 47  1  0
M  END
> <ID>
HT3528

> <Class>
0.0

> <Clusters>
63

> <Fold>
4

$$$$