
     RDKit          3D

 50 49  0  0  0  0  0  0  0  0999 V2000
    6.6220    1.2017   -0.3362 C   0  0  0  0  0  0  0  0  0  0  0  0
    5.9873   -0.1359   -0.2514 N   0  0  0  0  0  0  0  0  0  0  0  0
    6.4581   -0.8342    0.9692 C   0  0  0  0  0  0  0  0  0  0  0  0
    6.4105   -0.9274   -1.4326 C   0  0  0  0  0  0  0  0  0  0  0  0
    4.4958   -0.0342   -0.2759 C   0  0  0  0  0  0  0  0  0  0  0  0
    3.8717    0.7769    0.8816 C   0  0  0  0  0  0  0  0  0  0  0  0
    2.4519    0.8160    0.7476 O   0  0  0  0  0  0  0  0  0  0  0  0
    1.6197   -0.2746    1.0250 C   0  0  0  0  0  0  0  0  0  0  0  0
    2.0915   -1.3424    1.5031 O   0  0  0  0  0  0  0  0  0  0  0  0
    0.1459   -0.1470    0.8074 C   0  0  0  0  0  0  0  0  0  0  0  0
   -0.5286    0.4381    2.0498 C   0  0  0  0  0  0  0  0  0  0  0  0
   -2.0011    0.5858    1.8281 C   0  0  0  0  0  0  0  0  0  0  0  0
   -2.5264    1.7325    1.8489 O   0  0  0  0  0  0  0  0  0  0  0  0
   -2.7820   -0.5555    1.6108 O   0  0  0  0  0  0  0  0  0  0  0  0
   -4.1744   -0.5082    1.3053 C   0  0  0  0  0  0  0  0  0  0  0  0
   -4.3782   -0.0959   -0.1690 C   0  0  0  0  0  0  0  0  0  0  0  0
   -5.8020   -0.0189   -0.6188 N   0  0  0  0  0  0  0  0  0  0  0  0
   -5.8080    0.3713   -2.0501 C   0  0  0  0  0  0  0  0  0  0  0  0
   -6.5523    1.0066    0.1458 C   0  0  0  0  0  0  0  0  0  0  0  0
   -6.4808   -1.3311   -0.4915 C   0  0  0  0  0  0  0  0  0  0  0  0
    7.7232    1.1138   -0.4750 H   0  0  0  0  0  0  0  0  0  0  0  0
    6.4672    1.7886    0.5943 H   0  0  0  0  0  0  0  0  0  0  0  0
    6.2134    1.7841   -1.1919 H   0  0  0  0  0  0  0  0  0  0  0  0
    5.9279   -1.8032    1.1050 H   0  0  0  0  0  0  0  0  0  0  0  0
    7.5499   -1.0449    0.9132 H   0  0  0  0  0  0  0  0  0  0  0  0
    6.3017   -0.2184    1.8803 H   0  0  0  0  0  0  0  0  0  0  0  0
    6.0904   -0.4365   -2.3794 H   0  0  0  0  0  0  0  0  0  0  0  0
    5.9687   -1.9492   -1.4096 H   0  0  0  0  0  0  0  0  0  0  0  0
    7.5176   -1.0408   -1.4705 H   0  0  0  0  0  0  0  0  0  0  0  0
    4.1630    0.4376   -1.2290 H   0  0  0  0  0  0  0  0  0  0  0  0
    4.0506   -1.0546   -0.2622 H   0  0  0  0  0  0  0  0  0  0  0  0
    4.1318    0.3504    1.8722 H   0  0  0  0  0  0  0  0  0  0  0  0
    4.2334    1.8237    0.8464 H   0  0  0  0  0  0  0  0  0  0  0  0
   -0.2812   -1.1479    0.5771 H   0  0  0  0  0  0  0  0  0  0  0  0
   -0.0347    0.5164   -0.0664 H   0  0  0  0  0  0  0  0  0  0  0  0
   -0.0826    1.4307    2.2824 H   0  0  0  0  0  0  0  0  0  0  0  0
   -0.3641   -0.2318    2.9214 H   0  0  0  0  0  0  0  0  0  0  0  0
   -4.6779    0.1926    2.0026 H   0  0  0  0  0  0  0  0  0  0  0  0
   -4.5835   -1.5239    1.4754 H   0  0  0  0  0  0  0  0  0  0  0  0
   -3.8822    0.8892   -0.3223 H   0  0  0  0  0  0  0  0  0  0  0  0
   -3.8200   -0.8267   -0.7985 H   0  0  0  0  0  0  0  0  0  0  0  0
   -5.3181    1.3602   -2.1980 H   0  0  0  0  0  0  0  0  0  0  0  0
   -5.2655   -0.3766   -2.6715 H   0  0  0  0  0  0  0  0  0  0  0  0
   -6.8459    0.4479   -2.4461 H   0  0  0  0  0  0  0  0  0  0  0  0
   -7.5630    1.1710   -0.2910 H   0  0  0  0  0  0  0  0  0  0  0  0
   -6.7108    0.6972    1.2008 H   0  0  0  0  0  0  0  0  0  0  0  0
   -6.0143    1.9808    0.1427 H   0  0  0  0  0  0  0  0  0  0  0  0
   -6.6426   -1.6073    0.5724 H   0  0  0  0  0  0  0  0  0  0  0  0
   -5.8869   -2.1368   -0.9778 H   0  0  0  0  0  0  0  0  0  0  0  0
   -7.4863   -1.3092   -0.9691 H   0  0  0  0  0  0  0  0  0  0  0  0
  1  2  1  0
  2  3  1  0
  2  4  1  0
  2  5  1  0
  5  6  1  0
  6  7  1  0
  7  8  1  0
  8  9  2  0
  8 10  1  0
 10 11  1  0
 11 12  1  0
 12 13  2  0
 12 14  1  0
 14 15  1  0
 15 16  1  0
 16 17  1  0
 17 18  1  0
 17 19  1  0
 17 20  1  0
  1 21  1  0
  1 22  1  0
  1 23  1  0
  3 24  1  0
  3 25  1  0
  3 26  1  0
  4 27  1  0
  4 28  1  0
  4 29  1  0
  5 30  1  0
  5 31  1  0
  6 32  1  0
  6 33  1  0
 10 34  1  0
 10 35  1  0
 11 36  1  0
 11 37  1  0
 15 38  1  0
 15 39  1  0
 16 40  1  0
 16 41  1  0
 18 42  1  0
 18 43  1  0
 18 44  1  0
 19 45  1  0
 19 46  1  0
 19 47  1  0
 20 48  1  0
 20 49  1  0
 20 50  1  0
M  CHG  2   2   1  17   1
M  END
> <ID>
HT1925

> <Class>
0.0

> <Clusters>
4

> <Fold>
4

$$$$