
     RDKit          3D

 30 30  0  0  0  0  0  0  0  0999 V2000
    2.3746   -1.0404   -1.7923 C   0  0  0  0  0  0  0  0  0  0  0  0
    1.9086   -1.0657   -0.4038 N   0  0  0  0  0  0  0  0  0  0  0  0
    1.6409    0.2888    0.1190 C   0  0  0  0  0  0  0  0  0  0  0  0
    2.9292    0.9685    0.6149 C   0  0  0  0  0  0  0  0  0  0  0  0
    0.6208    0.1965    1.2689 C   0  0  0  0  0  0  0  0  0  0  0  0
   -0.6966   -0.3775    0.7990 C   0  0  0  0  0  0  0  0  0  0  0  0
   -1.0322   -1.7029    1.1258 C   0  0  0  0  0  0  0  0  0  0  0  0
   -2.2388   -2.2550    0.6928 C   0  0  0  0  0  0  0  0  0  0  0  0
   -3.1241   -1.4912   -0.0672 C   0  0  0  0  0  0  0  0  0  0  0  0
   -2.8084   -0.1710   -0.3951 C   0  0  0  0  0  0  0  0  0  0  0  0
   -1.5945    0.4012    0.0364 C   0  0  0  0  0  0  0  0  0  0  0  0
   -1.2552    1.7302   -0.2673 O   0  0  0  0  0  0  0  0  0  0  0  0
   -2.0622    2.6154   -1.0368 C   0  0  0  0  0  0  0  0  0  0  0  0
    3.3408   -0.5005   -1.8815 H   0  0  0  0  0  0  0  0  0  0  0  0
    2.5242   -2.0821   -2.1461 H   0  0  0  0  0  0  0  0  0  0  0  0
    1.6139   -0.5649   -2.4480 H   0  0  0  0  0  0  0  0  0  0  0  0
    2.6287   -1.5472    0.1848 H   0  0  0  0  0  0  0  0  0  0  0  0
    1.2039    0.9333   -0.6771 H   0  0  0  0  0  0  0  0  0  0  0  0
    3.6547    1.0863   -0.2157 H   0  0  0  0  0  0  0  0  0  0  0  0
    2.6985    1.9817    1.0079 H   0  0  0  0  0  0  0  0  0  0  0  0
    3.4029    0.3727    1.4243 H   0  0  0  0  0  0  0  0  0  0  0  0
    0.4412    1.2033    1.7057 H   0  0  0  0  0  0  0  0  0  0  0  0
    1.0471   -0.4319    2.0824 H   0  0  0  0  0  0  0  0  0  0  0  0
   -0.3543   -2.3138    1.7090 H   0  0  0  0  0  0  0  0  0  0  0  0
   -2.4870   -3.2778    0.9454 H   0  0  0  0  0  0  0  0  0  0  0  0
   -4.0587   -1.9225   -0.4021 H   0  0  0  0  0  0  0  0  0  0  0  0
   -3.5166    0.3971   -0.9823 H   0  0  0  0  0  0  0  0  0  0  0  0
   -3.0411    2.7720   -0.5365 H   0  0  0  0  0  0  0  0  0  0  0  0
   -2.2141    2.2039   -2.0569 H   0  0  0  0  0  0  0  0  0  0  0  0
   -1.5465    3.5937   -1.1218 H   0  0  0  0  0  0  0  0  0  0  0  0
  1  2  1  0
  2  3  1  0
  3  4  1  0
  3  5  1  0
  5  6  1  0
  6  7  2  0
  7  8  1  0
  8  9  2  0
  9 10  1  0
 10 11  2  0
 11  6  1  0
 11 12  1  0
 12 13  1  0
  1 14  1  0
  1 15  1  0
  1 16  1  0
  2 17  1  0
  3 18  1  0
  4 19  1  0
  4 20  1  0
  4 21  1  0
  5 22  1  0
  5 23  1  0
  7 24  1  0
  8 25  1  0
  9 26  1  0
 10 27  1  0
 13 28  1  0
 13 29  1  0
 13 30  1  0
M  END
> <ID>
HT2769

> <Class>
0.0

> <Clusters>
164

> <Fold>
4

$$$$