
     RDKit          3D

 59 62  0  0  0  0  0  0  0  0999 V2000
   -6.4664   -3.3052    1.2949 C   0  0  0  0  0  0  0  0  0  0  0  0
   -5.1305   -2.6525    1.4940 C   0  0  0  0  0  0  0  0  0  0  0  0
   -4.3404   -3.1506    2.3425 O   0  0  0  0  0  0  0  0  0  0  0  0
   -4.7201   -1.4492    0.7189 C   0  0  0  0  0  0  0  0  0  0  0  0
   -5.5223   -0.9416   -0.3218 C   0  0  0  0  0  0  0  0  0  0  0  0
   -5.1184    0.1811   -1.0474 C   0  0  0  0  0  0  0  0  0  0  0  0
   -3.9121    0.8143   -0.7454 C   0  0  0  0  0  0  0  0  0  0  0  0
   -3.3277    2.1786   -1.7588 S   0  0  0  0  0  0  0  0  0  0  0  0
   -2.8508    3.1703   -0.3393 C   0  0  0  0  0  0  0  0  0  0  0  0
   -3.1631    4.5327   -0.2955 C   0  0  0  0  0  0  0  0  0  0  0  0
   -2.7234    5.3127    0.7771 C   0  0  0  0  0  0  0  0  0  0  0  0
   -1.9804    4.7310    1.8091 C   0  0  0  0  0  0  0  0  0  0  0  0
   -1.6867    3.3640    1.7791 C   0  0  0  0  0  0  0  0  0  0  0  0
   -2.1179    2.5735    0.7022 C   0  0  0  0  0  0  0  0  0  0  0  0
   -1.9835    1.1383    0.7407 N   0  0  0  0  0  0  0  0  0  0  0  0
   -0.6715    0.5166    0.9611 C   0  0  0  0  0  0  0  0  0  0  0  0
   -0.0273    0.1662   -0.3836 C   0  0  0  0  0  0  0  0  0  0  0  0
    1.3719   -0.4262   -0.1964 C   0  0  0  0  0  0  0  0  0  0  0  0
    1.9136   -0.8352   -1.5134 N   0  0  0  0  0  0  0  0  0  0  0  0
    2.7360    0.2115   -2.1524 C   0  0  0  0  0  0  0  0  0  0  0  0
    4.1061    0.4026   -1.4668 C   0  0  0  0  0  0  0  0  0  0  0  0
    4.5793   -0.8432   -0.6840 C   0  0  0  0  0  0  0  0  0  0  0  0
    6.1171   -0.8127   -0.5125 C   0  0  0  0  0  0  0  0  0  0  0  0
    6.6336   -1.7748    0.5677 C   0  0  0  0  0  0  0  0  0  0  0  0
    6.0916   -1.4609    1.8220 O   0  0  0  0  0  0  0  0  0  0  0  0
    4.1050   -2.1185   -1.3994 C   0  0  0  0  0  0  0  0  0  0  0  0
    2.5668   -2.1676   -1.5287 C   0  0  0  0  0  0  0  0  0  0  0  0
   -3.1137    0.3495    0.3118 C   0  0  0  0  0  0  0  0  0  0  0  0
   -3.5179   -0.7851    1.0344 C   0  0  0  0  0  0  0  0  0  0  0  0
   -6.5888   -4.1630    1.9889 H   0  0  0  0  0  0  0  0  0  0  0  0
   -6.5537   -3.6804    0.2547 H   0  0  0  0  0  0  0  0  0  0  0  0
   -7.2769   -2.5741    1.4963 H   0  0  0  0  0  0  0  0  0  0  0  0
   -6.4581   -1.4139   -0.5919 H   0  0  0  0  0  0  0  0  0  0  0  0
   -5.7330    0.5418   -1.8619 H   0  0  0  0  0  0  0  0  0  0  0  0
   -3.7287    4.9911   -1.0977 H   0  0  0  0  0  0  0  0  0  0  0  0
   -2.9588    6.3681    0.8093 H   0  0  0  0  0  0  0  0  0  0  0  0
   -1.6560    5.3350    2.6462 H   0  0  0  0  0  0  0  0  0  0  0  0
   -1.1690    2.9181    2.6179 H   0  0  0  0  0  0  0  0  0  0  0  0
   -0.7786   -0.4007    1.5760 H   0  0  0  0  0  0  0  0  0  0  0  0
   -0.0014    1.2063    1.5190 H   0  0  0  0  0  0  0  0  0  0  0  0
    0.0384    1.0851   -1.0057 H   0  0  0  0  0  0  0  0  0  0  0  0
   -0.6681   -0.5714   -0.9157 H   0  0  0  0  0  0  0  0  0  0  0  0
    1.2916   -1.2878    0.5028 H   0  0  0  0  0  0  0  0  0  0  0  0
    2.0212    0.3282    0.2988 H   0  0  0  0  0  0  0  0  0  0  0  0
    2.8992   -0.0696   -3.2159 H   0  0  0  0  0  0  0  0  0  0  0  0
    2.1879    1.1785   -2.1693 H   0  0  0  0  0  0  0  0  0  0  0  0
    4.0551    1.2654   -0.7683 H   0  0  0  0  0  0  0  0  0  0  0  0
    4.8461    0.6653   -2.2537 H   0  0  0  0  0  0  0  0  0  0  0  0
    4.1139   -0.8156    0.3255 H   0  0  0  0  0  0  0  0  0  0  0  0
    6.4377    0.2155   -0.2310 H   0  0  0  0  0  0  0  0  0  0  0  0
    6.6097   -1.0562   -1.4795 H   0  0  0  0  0  0  0  0  0  0  0  0
    6.3754   -2.8217    0.3141 H   0  0  0  0  0  0  0  0  0  0  0  0
    7.7446   -1.7186    0.6090 H   0  0  0  0  0  0  0  0  0  0  0  0
    6.5605   -0.6442    2.1384 H   0  0  0  0  0  0  0  0  0  0  0  0
    4.4399   -3.0236   -0.8519 H   0  0  0  0  0  0  0  0  0  0  0  0
    4.5588   -2.1568   -2.4154 H   0  0  0  0  0  0  0  0  0  0  0  0
    2.3165   -2.6638   -2.4911 H   0  0  0  0  0  0  0  0  0  0  0  0
    2.1496   -2.8348   -0.7429 H   0  0  0  0  0  0  0  0  0  0  0  0
   -2.9219   -1.1215    1.8721 H   0  0  0  0  0  0  0  0  0  0  0  0
  1  2  1  0
  2  3  2  0
  2  4  1  0
  4  5  2  0
  5  6  1  0
  6  7  2  0
  7  8  1  0
  8  9  1  0
  9 10  2  0
 10 11  1  0
 11 12  2  0
 12 13  1  0
 13 14  2  0
 14  9  1  0
 14 15  1  0
 15 16  1  0
 16 17  1  0
 17 18  1  0
 18 19  1  0
 19 20  1  0
 20 21  1  0
 21 22  1  0
 22 23  1  0
 23 24  1  0
 24 25  1  0
 22 26  1  0
 26 27  1  0
 27 19  1  0
 15 28  1  0
 28  7  1  0
 28 29  2  0
 29  4  1  0
  1 30  1  0
  1 31  1  0
  1 32  1  0
  5 33  1  0
  6 34  1  0
 10 35  1  0
 11 36  1  0
 12 37  1  0
 13 38  1  0
 16 39  1  0
 16 40  1  0
 17 41  1  0
 17 42  1  0
 18 43  1  0
 18 44  1  0
 20 45  1  0
 20 46  1  0
 21 47  1  0
 21 48  1  0
 22 49  1  0
 23 50  1  0
 23 51  1  0
 24 52  1  0
 24 53  1  0
 25 54  1  0
 26 55  1  0
 26 56  1  0
 27 57  1  0
 27 58  1  0
 29 59  1  0
M  END
> <ID>
HT3785

> <Class>
0.0

> <Clusters>
276

> <Fold>
4

$$$$