
     RDKit          3D

 20 19  0  0  0  0  0  0  0  0999 V2000
   -0.9436    0.2998    1.3112 C   0  0  0  0  0  0  0  0  0  0  0  0
   -0.4991   -0.0105   -0.0700 N   0  0  0  0  0  0  0  0  0  0  0  0
   -1.3684    0.7446   -1.0074 C   0  0  0  0  0  0  0  0  0  0  0  0
   -0.6731   -1.4564   -0.3543 C   0  0  0  0  0  0  0  0  0  0  0  0
    0.9109    0.4319   -0.3074 C   0  0  0  0  0  0  0  0  0  0  0  0
    1.9931   -0.2079    0.5429 C   0  0  0  0  0  0  0  0  0  0  0  0
    1.7411   -1.0761    1.4174 O   0  0  0  0  0  0  0  0  0  0  0  0
    3.3166    0.1772    0.3518 O   0  0  0  0  0  0  0  0  0  0  0  0
   -2.0348    0.1142    1.4306 H   0  0  0  0  0  0  0  0  0  0  0  0
   -0.7480    1.3660    1.5631 H   0  0  0  0  0  0  0  0  0  0  0  0
   -0.4363   -0.3321    2.0671 H   0  0  0  0  0  0  0  0  0  0  0  0
   -2.4393    0.4642   -0.8857 H   0  0  0  0  0  0  0  0  0  0  0  0
   -1.2881    1.8419   -0.8351 H   0  0  0  0  0  0  0  0  0  0  0  0
   -1.0881    0.5437   -2.0663 H   0  0  0  0  0  0  0  0  0  0  0  0
   -0.1648   -2.0953    0.3949 H   0  0  0  0  0  0  0  0  0  0  0  0
   -0.2733   -1.7160   -1.3598 H   0  0  0  0  0  0  0  0  0  0  0  0
   -1.7491   -1.7414   -0.3292 H   0  0  0  0  0  0  0  0  0  0  0  0
    0.9908    1.5318   -0.1521 H   0  0  0  0  0  0  0  0  0  0  0  0
    1.1887    0.2474   -1.3702 H   0  0  0  0  0  0  0  0  0  0  0  0
    3.5648    0.8730   -0.3415 H   0  0  0  0  0  0  0  0  0  0  0  0
  1  2  1  0
  2  3  1  0
  2  4  1  0
  2  5  1  0
  5  6  1  0
  6  7  2  0
  6  8  1  0
  1  9  1  0
  1 10  1  0
  1 11  1  0
  3 12  1  0
  3 13  1  0
  3 14  1  0
  4 15  1  0
  4 16  1  0
  4 17  1  0
  5 18  1  0
  5 19  1  0
  8 20  1  0
M  CHG  1   2   1
M  END
> <ID>
HT0269

> <Class>
0.0

> <Clusters>
4

> <Fold>
4

$$$$