
     RDKit          3D

 25 26  0  0  0  0  0  0  0  0999 V2000
    3.5265   -1.2593    0.3562 C   0  0  0  0  0  0  0  0  0  0  0  0
    2.4961   -0.2283    0.0020 C   0  0  0  0  0  0  0  0  0  0  0  0
    1.1335   -0.5201    0.1477 C   0  0  0  0  0  0  0  0  0  0  0  0
    0.1789    0.4095   -0.1660 N   0  0  0  0  0  0  0  0  0  0  0  0
    0.5432    1.6453   -0.6413 C   0  0  0  0  0  0  0  0  0  0  0  0
   -0.3312    2.4976   -0.9592 O   0  0  0  0  0  0  0  0  0  0  0  0
    1.8939    1.9710   -0.7955 C   0  0  0  0  0  0  0  0  0  0  0  0
    2.8709    1.0324   -0.4729 C   0  0  0  0  0  0  0  0  0  0  0  0
   -1.2103    0.0650    0.0095 C   0  0  0  0  0  0  0  0  0  0  0  0
   -2.0411    0.8486    0.8296 C   0  0  0  0  0  0  0  0  0  0  0  0
   -3.3854    0.5059    1.0047 C   0  0  0  0  0  0  0  0  0  0  0  0
   -3.9097   -0.6215    0.3667 C   0  0  0  0  0  0  0  0  0  0  0  0
   -3.0902   -1.4096   -0.4459 C   0  0  0  0  0  0  0  0  0  0  0  0
   -1.7452   -1.0707   -0.6234 C   0  0  0  0  0  0  0  0  0  0  0  0
    3.4240   -1.5366    1.4265 H   0  0  0  0  0  0  0  0  0  0  0  0
    3.3780   -2.1648   -0.2690 H   0  0  0  0  0  0  0  0  0  0  0  0
    4.5570   -0.8802    0.1878 H   0  0  0  0  0  0  0  0  0  0  0  0
    0.8413   -1.4939    0.5263 H   0  0  0  0  0  0  0  0  0  0  0  0
    2.1852    2.9449   -1.1695 H   0  0  0  0  0  0  0  0  0  0  0  0
    3.9158    1.2892   -0.5962 H   0  0  0  0  0  0  0  0  0  0  0  0
   -1.6430    1.7171    1.3391 H   0  0  0  0  0  0  0  0  0  0  0  0
   -4.0200    1.1128    1.6375 H   0  0  0  0  0  0  0  0  0  0  0  0
   -4.9504   -0.8856    0.5035 H   0  0  0  0  0  0  0  0  0  0  0  0
   -3.4971   -2.2830   -0.9388 H   0  0  0  0  0  0  0  0  0  0  0  0
   -1.1208   -1.6856   -1.2593 H   0  0  0  0  0  0  0  0  0  0  0  0
  1  2  1  0
  2  3  2  0
  3  4  1  0
  4  5  1  0
  5  6  2  0
  5  7  1  0
  7  8  2  0
  8  2  1  0
  4  9  1  0
  9 10  2  0
 10 11  1  0
 11 12  2  0
 12 13  1  0
 13 14  2  0
 14  9  1  0
  1 15  1  0
  1 16  1  0
  1 17  1  0
  3 18  1  0
  7 19  1  0
  8 20  1  0
 10 21  1  0
 11 22  1  0
 12 23  1  0
 13 24  1  0
 14 25  1  0
M  END
> <ID>
HT1692

> <Class>
0.0

> <Clusters>
16

> <Fold>
4

$$$$