
     RDKit          3D

 16 15  0  0  0  0  0  0  0  0999 V2000
   -0.2816   -0.8836   -1.7185 O   0  0  0  0  0  0  0  0  0  0  0  0
    0.0730    0.0274   -0.7131 C   0  0  0  0  0  0  0  0  0  0  0  0
    1.2382   -0.7410    0.4660 P   0  0  0  0  0  0  0  0  0  0  0  0
    0.6015   -1.9523    1.1085 O   0  0  0  0  0  0  0  0  0  0  0  0
    1.6611    0.3710    1.6698 O   0  0  0  0  0  0  0  0  0  0  0  0
    2.6316   -1.2256   -0.3628 O   0  0  0  0  0  0  0  0  0  0  0  0
   -1.4163    0.6508    0.1422 P   0  0  0  0  0  0  0  0  0  0  0  0
   -1.0246    1.7075    1.1512 O   0  0  0  0  0  0  0  0  0  0  0  0
   -2.2160   -0.6188    0.9272 O   0  0  0  0  0  0  0  0  0  0  0  0
   -2.4628    1.3340   -0.9985 O   0  0  0  0  0  0  0  0  0  0  0  0
   -0.7484   -1.6414   -1.2793 H   0  0  0  0  0  0  0  0  0  0  0  0
    0.5830    0.8909   -1.1877 H   0  0  0  0  0  0  0  0  0  0  0  0
    2.0506    1.1386    1.1800 H   0  0  0  0  0  0  0  0  0  0  0  0
    2.9977   -0.3918   -0.7522 H   0  0  0  0  0  0  0  0  0  0  0  0
   -1.7523   -0.7185    1.7965 H   0  0  0  0  0  0  0  0  0  0  0  0
   -1.9348    2.0529   -1.4293 H   0  0  0  0  0  0  0  0  0  0  0  0
  1  2  1  0
  2  3  1  0
  3  4  2  0
  3  5  1  0
  3  6  1  0
  2  7  1  0
  7  8  2  0
  7  9  1  0
  7 10  1  0
  1 11  1  0
  2 12  1  0
  5 13  1  0
  6 14  1  0
  9 15  1  0
 10 16  1  0
M  END
> <ID>
HT2822

> <Class>
0.0

> <Clusters>
188

> <Fold>
4

$$$$