
     RDKit          3D

 60 63  0  0  0  0  0  0  0  0999 V2000
    7.5684    1.4053    0.7228 C   0  0  0  0  0  0  0  0  0  0  0  0
    6.5893    1.4653    1.8957 C   0  0  0  0  0  0  0  0  0  0  0  0
    5.4410    0.4507    1.7526 C   0  0  0  0  0  0  0  0  0  0  0  0
    4.3940    0.8352    0.7290 C   0  0  0  0  0  0  0  0  0  0  0  0
    4.5035    1.9280    0.1061 O   0  0  0  0  0  0  0  0  0  0  0  0
    3.2218   -0.0412    0.4535 C   0  0  0  0  0  0  0  0  0  0  0  0
    3.0262   -1.2475    1.1549 C   0  0  0  0  0  0  0  0  0  0  0  0
    1.9175   -2.0534    0.8884 C   0  0  0  0  0  0  0  0  0  0  0  0
    0.9807   -1.6639   -0.0695 C   0  0  0  0  0  0  0  0  0  0  0  0
   -0.5131   -2.6317   -0.3119 S   0  0  0  0  0  0  0  0  0  0  0  0
   -0.4324   -2.5231   -2.1013 C   0  0  0  0  0  0  0  0  0  0  0  0
   -0.6994   -3.6506   -2.8843 C   0  0  0  0  0  0  0  0  0  0  0  0
   -0.7397   -3.5400   -4.2766 C   0  0  0  0  0  0  0  0  0  0  0  0
   -0.5022   -2.3062   -4.8881 C   0  0  0  0  0  0  0  0  0  0  0  0
   -0.2098   -1.1810   -4.1106 C   0  0  0  0  0  0  0  0  0  0  0  0
   -0.1732   -1.2800   -2.7091 C   0  0  0  0  0  0  0  0  0  0  0  0
    0.2771   -0.1753   -1.8956 N   0  0  0  0  0  0  0  0  0  0  0  0
   -0.2883    1.1726   -2.0727 C   0  0  0  0  0  0  0  0  0  0  0  0
   -1.7298    1.2380   -1.5496 C   0  0  0  0  0  0  0  0  0  0  0  0
   -1.7933    1.1008   -0.0201 C   0  0  0  0  0  0  0  0  0  0  0  0
   -3.1757    1.2914    0.4719 N   0  0  0  0  0  0  0  0  0  0  0  0
   -3.1528    1.7013    1.8892 C   0  0  0  0  0  0  0  0  0  0  0  0
   -4.5808    1.9395    2.4031 C   0  0  0  0  0  0  0  0  0  0  0  0
   -5.4521    0.7631    2.2113 N   0  0  0  0  0  0  0  0  0  0  0  0
   -5.1914   -0.2987    3.1987 C   0  0  0  0  0  0  0  0  0  0  0  0
   -5.4013    0.2662    0.8220 C   0  0  0  0  0  0  0  0  0  0  0  0
   -3.9627    0.0489    0.3291 C   0  0  0  0  0  0  0  0  0  0  0  0
    1.1612   -0.4736   -0.7938 C   0  0  0  0  0  0  0  0  0  0  0  0
    2.2857    0.3268   -0.5334 C   0  0  0  0  0  0  0  0  0  0  0  0
    8.0174    0.3918    0.6478 H   0  0  0  0  0  0  0  0  0  0  0  0
    7.0604    1.6492   -0.2327 H   0  0  0  0  0  0  0  0  0  0  0  0
    8.3837    2.1417    0.8852 H   0  0  0  0  0  0  0  0  0  0  0  0
    7.1511    1.2331    2.8265 H   0  0  0  0  0  0  0  0  0  0  0  0
    6.1860    2.4961    2.0010 H   0  0  0  0  0  0  0  0  0  0  0  0
    5.8643   -0.5442    1.4919 H   0  0  0  0  0  0  0  0  0  0  0  0
    4.9403    0.3601    2.7409 H   0  0  0  0  0  0  0  0  0  0  0  0
    3.7204   -1.5738    1.9171 H   0  0  0  0  0  0  0  0  0  0  0  0
    1.7720   -2.9670    1.4505 H   0  0  0  0  0  0  0  0  0  0  0  0
   -0.9026   -4.6047   -2.4154 H   0  0  0  0  0  0  0  0  0  0  0  0
   -0.9568   -4.4108   -4.8815 H   0  0  0  0  0  0  0  0  0  0  0  0
   -0.5222   -2.2269   -5.9670 H   0  0  0  0  0  0  0  0  0  0  0  0
    0.0286   -0.2513   -4.6082 H   0  0  0  0  0  0  0  0  0  0  0  0
    0.3241    1.9384   -1.5521 H   0  0  0  0  0  0  0  0  0  0  0  0
   -0.2829    1.4503   -3.1464 H   0  0  0  0  0  0  0  0  0  0  0  0
   -2.3264    0.4428   -2.0419 H   0  0  0  0  0  0  0  0  0  0  0  0
   -2.1672    2.2181   -1.8388 H   0  0  0  0  0  0  0  0  0  0  0  0
   -1.1208    1.8798    0.4066 H   0  0  0  0  0  0  0  0  0  0  0  0
   -1.3920    0.1164    0.3015 H   0  0  0  0  0  0  0  0  0  0  0  0
   -2.5968    2.6601    1.9947 H   0  0  0  0  0  0  0  0  0  0  0  0
   -2.6361    0.9400    2.5166 H   0  0  0  0  0  0  0  0  0  0  0  0
   -5.0188    2.8022    1.8549 H   0  0  0  0  0  0  0  0  0  0  0  0
   -4.5470    2.2292    3.4764 H   0  0  0  0  0  0  0  0  0  0  0  0
   -5.9321   -1.1179    3.0794 H   0  0  0  0  0  0  0  0  0  0  0  0
   -4.1705   -0.7218    3.0950 H   0  0  0  0  0  0  0  0  0  0  0  0
   -5.3097    0.1009    4.2286 H   0  0  0  0  0  0  0  0  0  0  0  0
   -5.8983    1.0072    0.1587 H   0  0  0  0  0  0  0  0  0  0  0  0
   -5.9752   -0.6816    0.7262 H   0  0  0  0  0  0  0  0  0  0  0  0
   -4.0218   -0.2477   -0.7386 H   0  0  0  0  0  0  0  0  0  0  0  0
   -3.4909   -0.7928    0.8837 H   0  0  0  0  0  0  0  0  0  0  0  0
    2.4516    1.2161   -1.1272 H   0  0  0  0  0  0  0  0  0  0  0  0
  1  2  1  0
  2  3  1  0
  3  4  1  0
  4  5  2  0
  4  6  1  0
  6  7  2  0
  7  8  1  0
  8  9  2  0
  9 10  1  0
 10 11  1  0
 11 12  2  0
 12 13  1  0
 13 14  2  0
 14 15  1  0
 15 16  2  0
 16 11  1  0
 16 17  1  0
 17 18  1  0
 18 19  1  0
 19 20  1  0
 20 21  1  0
 21 22  1  0
 22 23  1  0
 23 24  1  0
 24 25  1  0
 24 26  1  0
 26 27  1  0
 27 21  1  0
 17 28  1  0
 28  9  1  0
 28 29  2  0
 29  6  1  0
  1 30  1  0
  1 31  1  0
  1 32  1  0
  2 33  1  0
  2 34  1  0
  3 35  1  0
  3 36  1  0
  7 37  1  0
  8 38  1  0
 12 39  1  0
 13 40  1  0
 14 41  1  0
 15 42  1  0
 18 43  1  0
 18 44  1  0
 19 45  1  0
 19 46  1  0
 20 47  1  0
 20 48  1  0
 22 49  1  0
 22 50  1  0
 23 51  1  0
 23 52  1  0
 25 53  1  0
 25 54  1  0
 25 55  1  0
 26 56  1  0
 26 57  1  0
 27 58  1  0
 27 59  1  0
 29 60  1  0
M  END
> <ID>
HT3783

> <Class>
0.0

> <Clusters>
276

> <Fold>
4

$$$$