
     RDKit          3D

 71 74  0  0  0  0  0  0  0  0999 V2000
    5.1280    1.9743    3.5120 C   0  0  0  0  0  0  0  0  0  0  0  0
    3.9073    2.8868    3.4569 C   0  0  0  0  0  0  0  0  0  0  0  0
    2.8013    2.2188    2.8525 O   0  0  0  0  0  0  0  0  0  0  0  0
    2.7187    1.9472    1.4834 C   0  0  0  0  0  0  0  0  0  0  0  0
    3.6098    2.3642    0.6930 O   0  0  0  0  0  0  0  0  0  0  0  0
    1.6254    1.2107    1.0072 O   0  0  0  0  0  0  0  0  0  0  0  0
    1.4013    0.8474   -0.3673 C   0  0  2  0  0  0  0  0  0  0  0  0
    1.0620    2.1398   -1.1802 C   0  0  0  0  0  0  0  0  0  0  0  0
   -0.4728    2.2674   -1.2009 C   0  0  0  0  0  0  0  0  0  0  0  0
   -0.9620    1.1483   -0.2909 C   0  0  1  0  0  0  0  0  0  0  0  0
   -2.4245    0.6650   -0.4215 C   0  0  2  0  0  0  0  0  0  0  0  0
   -3.3923    1.8596   -0.2664 C   0  0  0  0  0  0  0  0  0  0  0  0
   -4.8505    1.4087   -0.2997 C   0  0  0  0  0  0  0  0  0  0  0  0
   -5.0771    0.3632    0.7617 C   0  0  0  0  0  0  0  0  0  0  0  0
   -6.0080    0.5722    1.7066 C   0  0  0  0  0  0  0  0  0  0  0  0
   -6.2013   -0.3843    2.7951 C   0  0  0  0  0  0  0  0  0  0  0  0
   -7.0917   -0.1859    3.6629 O   0  0  0  0  0  0  0  0  0  0  0  0
   -5.3454   -1.5642    2.8770 C   0  0  0  0  0  0  0  0  0  0  0  0
   -4.4144   -1.7924    1.9503 C   0  0  0  0  0  0  0  0  0  0  0  0
   -4.1951   -0.8961    0.7298 C   0  0  1  0  0  0  0  0  0  0  0  0
   -4.6074   -1.7258   -0.5104 C   0  0  0  0  0  0  0  0  0  0  0  0
   -2.6909   -0.4127    0.6914 C   0  0  1  0  0  0  0  0  0  0  0  0
   -1.6105   -1.5532    0.7047 C   0  0  1  0  0  0  0  0  0  0  0  0
   -1.8121   -2.4580   -0.3476 O   0  0  0  0  0  0  0  0  0  0  0  0
   -0.1551   -1.0063    0.6721 C   0  0  0  0  0  0  0  0  0  0  0  0
    0.0730    0.0284   -0.4635 C   0  0  2  0  0  0  0  0  0  0  0  0
   -0.0102   -0.6768   -1.8614 C   0  0  0  0  0  0  0  0  0  0  0  0
    2.6134    0.0496   -0.8594 C   0  0  0  0  0  0  0  0  0  0  0  0
    2.9631   -0.9268   -0.2114 O   0  0  0  0  0  0  0  0  0  0  0  0
    3.4049    0.4323   -2.0900 C   0  0  0  0  0  0  0  0  0  0  0  0
    4.5263   -0.4297   -2.2832 O   0  0  0  0  0  0  0  0  0  0  0  0
    4.4122   -1.7446   -2.7493 C   0  0  0  0  0  0  0  0  0  0  0  0
    3.2869   -2.2248   -3.0571 O   0  0  0  0  0  0  0  0  0  0  0  0
    5.6335   -2.6024   -2.8328 C   0  0  0  0  0  0  0  0  0  0  0  0
    5.9214   -3.2522   -1.4848 C   0  0  0  0  0  0  0  0  0  0  0  0
    4.8779    1.0401    4.0578 H   0  0  0  0  0  0  0  0  0  0  0  0
    5.9554    2.4905    4.0426 H   0  0  0  0  0  0  0  0  0  0  0  0
    5.4693    1.7172    2.4878 H   0  0  0  0  0  0  0  0  0  0  0  0
    3.6265    3.1650    4.4945 H   0  0  0  0  0  0  0  0  0  0  0  0
    4.1453    3.8200    2.9018 H   0  0  0  0  0  0  0  0  0  0  0  0
    1.5114    3.0438   -0.7179 H   0  0  0  0  0  0  0  0  0  0  0  0
    1.4139    2.0958   -2.2298 H   0  0  0  0  0  0  0  0  0  0  0  0
   -0.7949    3.2615   -0.8205 H   0  0  0  0  0  0  0  0  0  0  0  0
   -0.8640    2.1282   -2.2328 H   0  0  0  0  0  0  0  0  0  0  0  0
   -0.8693    1.5534    0.7470 H   0  0  0  0  0  0  0  0  0  0  0  0
   -2.5922    0.2388   -1.4286 H   0  0  0  0  0  0  0  0  0  0  0  0
   -3.2341    2.5829   -1.0952 H   0  0  0  0  0  0  0  0  0  0  0  0
   -3.1970    2.3903    0.6923 H   0  0  0  0  0  0  0  0  0  0  0  0
   -5.5029    2.2976   -0.1525 H   0  0  0  0  0  0  0  0  0  0  0  0
   -5.0916    0.9873   -1.2985 H   0  0  0  0  0  0  0  0  0  0  0  0
   -6.6166    1.4688    1.6935 H   0  0  0  0  0  0  0  0  0  0  0  0
   -5.4736   -2.2638    3.6940 H   0  0  0  0  0  0  0  0  0  0  0  0
   -3.8426   -2.7072    2.0374 H   0  0  0  0  0  0  0  0  0  0  0  0
   -5.7142   -1.8270   -0.5499 H   0  0  0  0  0  0  0  0  0  0  0  0
   -4.2779   -1.2571   -1.4583 H   0  0  0  0  0  0  0  0  0  0  0  0
   -4.2023   -2.7579   -0.4727 H   0  0  0  0  0  0  0  0  0  0  0  0
   -2.5399    0.1184    1.6615 H   0  0  0  0  0  0  0  0  0  0  0  0
   -1.7070   -2.1016    1.6690 H   0  0  0  0  0  0  0  0  0  0  0  0
   -1.3200   -3.2889   -0.1165 H   0  0  0  0  0  0  0  0  0  0  0  0
    0.5591   -1.8514    0.5682 H   0  0  0  0  0  0  0  0  0  0  0  0
    0.0477   -0.5417    1.6612 H   0  0  0  0  0  0  0  0  0  0  0  0
    0.6824   -1.5441   -1.8957 H   0  0  0  0  0  0  0  0  0  0  0  0
   -1.0135   -1.0621   -2.1085 H   0  0  0  0  0  0  0  0  0  0  0  0
    0.2702    0.0063   -2.6886 H   0  0  0  0  0  0  0  0  0  0  0  0
    2.7581    0.4042   -2.9926 H   0  0  0  0  0  0  0  0  0  0  0  0
    3.7840    1.4669   -1.9606 H   0  0  0  0  0  0  0  0  0  0  0  0
    6.5016   -1.9780   -3.1345 H   0  0  0  0  0  0  0  0  0  0  0  0
    5.4896   -3.3921   -3.6019 H   0  0  0  0  0  0  0  0  0  0  0  0
    6.0929   -2.4742   -0.7102 H   0  0  0  0  0  0  0  0  0  0  0  0
    6.8319   -3.8829   -1.5631 H   0  0  0  0  0  0  0  0  0  0  0  0
    5.0686   -3.8945   -1.1766 H   0  0  0  0  0  0  0  0  0  0  0  0
  1  2  1  0
  2  3  1  0
  3  4  1  0
  4  5  2  0
  4  6  1  0
  7  6  1  1
  7  8  1  0
  8  9  1  0
 10  9  1  0
 10 11  1  0
 11 12  1  0
 12 13  1  0
 13 14  1  0
 14 15  2  0
 15 16  1  0
 16 17  2  0
 16 18  1  0
 18 19  2  0
 19 20  1  0
 20 14  1  0
 20 21  1  6
 20 22  1  0
 22 11  1  0
 22 23  1  0
 23 24  1  0
 23 25  1  0
 25 26  1  0
 26  7  1  0
 26 10  1  0
 26 27  1  6
  7 28  1  0
 28 29  2  0
 28 30  1  0
 30 31  1  0
 31 32  1  0
 32 33  2  0
 32 34  1  0
 34 35  1  0
  1 36  1  0
  1 37  1  0
  1 38  1  0
  2 39  1  0
  2 40  1  0
  8 41  1  0
  8 42  1  0
  9 43  1  0
  9 44  1  0
 10 45  1  1
 11 46  1  6
 12 47  1  0
 12 48  1  0
 13 49  1  0
 13 50  1  0
 15 51  1  0
 18 52  1  0
 19 53  1  0
 21 54  1  0
 21 55  1  0
 21 56  1  0
 22 57  1  1
 23 58  1  1
 24 59  1  0
 25 60  1  0
 25 61  1  0
 27 62  1  0
 27 63  1  0
 27 64  1  0
 30 65  1  0
 30 66  1  0
 34 67  1  0
 34 68  1  0
 35 69  1  0
 35 70  1  0
 35 71  1  0
M  END
> <ID>
HT1729

> <Class>
0.0

> <Clusters>
202

> <Fold>
4

$$$$