
     RDKit          3D

 51 50  0  0  0  0  0  0  0  0999 V2000
   -5.5809    1.8511   -1.8404 C   0  0  0  0  0  0  0  0  0  0  0  0
   -5.3524    0.4559   -1.2661 C   0  0  0  0  0  0  0  0  0  0  0  0
   -5.3434    0.4844    0.2691 C   0  0  0  0  0  0  0  0  0  0  0  0
   -5.2977   -0.9212    0.8957 C   0  0  0  0  0  0  0  0  0  0  0  0
   -4.0547   -1.7552    0.5350 C   0  0  0  0  0  0  0  0  0  0  0  0
   -2.7422   -1.1081    1.0016 C   0  0  0  0  0  0  0  0  0  0  0  0
   -1.5525   -2.0522    0.7719 C   0  0  0  0  0  0  0  0  0  0  0  0
   -0.2333   -1.4878    1.3229 C   0  0  0  0  0  0  0  0  0  0  0  0
    0.2903   -0.2972    0.5050 C   0  0  0  0  0  0  0  0  0  0  0  0
    1.6867    0.1254    0.9848 C   0  0  0  0  0  0  0  0  0  0  0  0
    2.1726    1.4361    0.3380 C   0  0  0  0  0  0  0  0  0  0  0  0
    2.3468    1.3805   -1.1914 C   0  0  0  0  0  0  0  0  0  0  0  0
    3.3923    0.3657   -1.6917 C   0  0  0  0  0  0  0  0  0  0  0  0
    4.8418    0.7197   -1.2954 C   0  0  0  0  0  0  0  0  0  0  0  0
    5.3548   -0.1318   -0.1227 C   0  0  0  0  0  0  0  0  0  0  0  0
    6.7944    0.2259    0.2501 C   0  0  0  0  0  0  0  0  0  0  0  0
    7.6615   -0.1020   -0.8003 O   0  0  0  0  0  0  0  0  0  0  0  0
   -4.7779    2.5419   -1.5054 H   0  0  0  0  0  0  0  0  0  0  0  0
   -6.5660    2.2472   -1.5138 H   0  0  0  0  0  0  0  0  0  0  0  0
   -5.5685    1.8031   -2.9497 H   0  0  0  0  0  0  0  0  0  0  0  0
   -6.1595   -0.2183   -1.6267 H   0  0  0  0  0  0  0  0  0  0  0  0
   -4.3784    0.0797   -1.6444 H   0  0  0  0  0  0  0  0  0  0  0  0
   -6.2740    0.9793    0.6243 H   0  0  0  0  0  0  0  0  0  0  0  0
   -4.4920    1.0972    0.6338 H   0  0  0  0  0  0  0  0  0  0  0  0
   -6.2035   -1.4836    0.5803 H   0  0  0  0  0  0  0  0  0  0  0  0
   -5.3510   -0.8169    2.0014 H   0  0  0  0  0  0  0  0  0  0  0  0
   -4.1627   -2.7462    1.0281 H   0  0  0  0  0  0  0  0  0  0  0  0
   -4.0193   -1.9404   -0.5595 H   0  0  0  0  0  0  0  0  0  0  0  0
   -2.8156   -0.8612    2.0834 H   0  0  0  0  0  0  0  0  0  0  0  0
   -2.5775   -0.1726    0.4292 H   0  0  0  0  0  0  0  0  0  0  0  0
   -1.4455   -2.2690   -0.3138 H   0  0  0  0  0  0  0  0  0  0  0  0
   -1.7533   -3.0161    1.2890 H   0  0  0  0  0  0  0  0  0  0  0  0
    0.5242   -2.3018    1.2959 H   0  0  0  0  0  0  0  0  0  0  0  0
   -0.3673   -1.1880    2.3855 H   0  0  0  0  0  0  0  0  0  0  0  0
   -0.4039    0.5632    0.6110 H   0  0  0  0  0  0  0  0  0  0  0  0
    0.3400   -0.5905   -0.5652 H   0  0  0  0  0  0  0  0  0  0  0  0
    2.4115   -0.6939    0.7995 H   0  0  0  0  0  0  0  0  0  0  0  0
    1.6540    0.2871    2.0846 H   0  0  0  0  0  0  0  0  0  0  0  0
    1.4422    2.2399    0.5759 H   0  0  0  0  0  0  0  0  0  0  0  0
    3.1309    1.7412    0.8076 H   0  0  0  0  0  0  0  0  0  0  0  0
    2.6338    2.3938   -1.5480 H   0  0  0  0  0  0  0  0  0  0  0  0
    1.3697    1.1555   -1.6680 H   0  0  0  0  0  0  0  0  0  0  0  0
    3.1223   -0.6657   -1.3815 H   0  0  0  0  0  0  0  0  0  0  0  0
    3.3345    0.3677   -2.8024 H   0  0  0  0  0  0  0  0  0  0  0  0
    4.9298    1.8001   -1.0468 H   0  0  0  0  0  0  0  0  0  0  0  0
    5.4982    0.5344   -2.1740 H   0  0  0  0  0  0  0  0  0  0  0  0
    4.7169    0.0279    0.7698 H   0  0  0  0  0  0  0  0  0  0  0  0
    5.3066   -1.2100   -0.3911 H   0  0  0  0  0  0  0  0  0  0  0  0
    7.0817   -0.3470    1.1599 H   0  0  0  0  0  0  0  0  0  0  0  0
    6.8657    1.3128    0.4805 H   0  0  0  0  0  0  0  0  0  0  0  0
    8.5699    0.1600   -0.4987 H   0  0  0  0  0  0  0  0  0  0  0  0
  1  2  1  0
  2  3  1  0
  3  4  1  0
  4  5  1  0
  5  6  1  0
  6  7  1  0
  7  8  1  0
  8  9  1  0
  9 10  1  0
 10 11  1  0
 11 12  1  0
 12 13  1  0
 13 14  1  0
 14 15  1  0
 15 16  1  0
 16 17  1  0
  1 18  1  0
  1 19  1  0
  1 20  1  0
  2 21  1  0
  2 22  1  0
  3 23  1  0
  3 24  1  0
  4 25  1  0
  4 26  1  0
  5 27  1  0
  5 28  1  0
  6 29  1  0
  6 30  1  0
  7 31  1  0
  7 32  1  0
  8 33  1  0
  8 34  1  0
  9 35  1  0
  9 36  1  0
 10 37  1  0
 10 38  1  0
 11 39  1  0
 11 40  1  0
 12 41  1  0
 12 42  1  0
 13 43  1  0
 13 44  1  0
 14 45  1  0
 14 46  1  0
 15 47  1  0
 15 48  1  0
 16 49  1  0
 16 50  1  0
 17 51  1  0
M  END
> <ID>
HT3059

> <Class>
0.0

> <Clusters>
270

> <Fold>
4

$$$$