
     RDKit          3D

 24 24  0  0  0  0  0  0  0  0999 V2000
   -3.8571    0.9920    0.1052 O   0  0  0  0  0  0  0  0  0  0  0  0
   -3.4618   -0.3204    0.3480 C   0  0  0  0  0  0  0  0  0  0  0  0
   -3.7935   -0.8768    1.4277 O   0  0  0  0  0  0  0  0  0  0  0  0
   -2.6156   -1.0619   -0.6454 C   0  0  0  0  0  0  0  0  0  0  0  0
   -1.1281   -1.0130   -0.2731 C   0  0  0  0  0  0  0  0  0  0  0  0
   -0.5383    0.3985   -0.4142 C   0  0  0  0  0  0  0  0  0  0  0  0
    0.9421    0.3949   -0.1318 C   0  0  0  0  0  0  0  0  0  0  0  0
    1.8675    0.6066   -1.1684 C   0  0  0  0  0  0  0  0  0  0  0  0
    3.2398    0.6063   -0.8989 C   0  0  0  0  0  0  0  0  0  0  0  0
    3.6981    0.3987    0.4048 C   0  0  0  0  0  0  0  0  0  0  0  0
    2.7849    0.1923    1.4421 C   0  0  0  0  0  0  0  0  0  0  0  0
    1.4119    0.1915    1.1774 C   0  0  0  0  0  0  0  0  0  0  0  0
   -3.5900    1.4720   -0.7459 H   0  0  0  0  0  0  0  0  0  0  0  0
   -2.7687   -0.6440   -1.6639 H   0  0  0  0  0  0  0  0  0  0  0  0
   -2.9438   -2.1235   -0.6724 H   0  0  0  0  0  0  0  0  0  0  0  0
   -0.9942   -1.3833    0.7672 H   0  0  0  0  0  0  0  0  0  0  0  0
   -0.5773   -1.7017   -0.9510 H   0  0  0  0  0  0  0  0  0  0  0  0
   -0.7330    0.7718   -1.4438 H   0  0  0  0  0  0  0  0  0  0  0  0
   -1.0364    1.0961    0.2929 H   0  0  0  0  0  0  0  0  0  0  0  0
    1.5290    0.7672   -2.1845 H   0  0  0  0  0  0  0  0  0  0  0  0
    3.9482    0.7672   -1.7013 H   0  0  0  0  0  0  0  0  0  0  0  0
    4.7606    0.3991    0.6113 H   0  0  0  0  0  0  0  0  0  0  0  0
    3.1409    0.0343    2.4520 H   0  0  0  0  0  0  0  0  0  0  0  0
    0.7150    0.0361    1.9917 H   0  0  0  0  0  0  0  0  0  0  0  0
  1  2  1  0
  2  3  2  0
  2  4  1  0
  4  5  1  0
  5  6  1  0
  6  7  1  0
  7  8  2  0
  8  9  1  0
  9 10  2  0
 10 11  1  0
 11 12  2  0
 12  7  1  0
  1 13  1  0
  4 14  1  0
  4 15  1  0
  5 16  1  0
  5 17  1  0
  6 18  1  0
  6 19  1  0
  8 20  1  0
  9 21  1  0
 10 22  1  0
 11 23  1  0
 12 24  1  0
M  END
> <ID>
HT1899

> <Class>
0.0

> <Clusters>
246

> <Fold>
4

$$$$