
     RDKit          3D

 53 56  0  0  0  0  0  0  0  0999 V2000
    2.4785   -2.5115   -0.8455 O   0  0  0  0  0  0  0  0  0  0  0  0
    2.5949   -1.5419   -0.0450 C   0  0  0  0  0  0  0  0  0  0  0  0
    1.5402   -1.2201    0.8182 O   0  0  0  0  0  0  0  0  0  0  0  0
    0.2610   -1.8481    0.7671 C   0  0  0  0  0  0  0  0  0  0  0  0
   -0.5567   -1.3017   -0.4066 C   0  0  0  0  0  0  0  0  0  0  0  0
   -1.7941   -1.9820   -0.5056 O   0  0  0  0  0  0  0  0  0  0  0  0
   -2.8075   -1.3251    0.2341 C   0  0  0  0  0  0  0  0  0  0  0  0
   -3.5659   -0.3342   -0.6573 C   0  0  0  0  0  0  0  0  0  0  0  0
   -4.7881    0.1417    0.0247 N   0  0  0  0  0  0  0  0  0  0  0  0
   -4.5029    1.2763    0.9273 C   0  0  0  0  0  0  0  0  0  0  0  0
   -5.7160    1.5544    1.8350 C   0  0  0  0  0  0  0  0  0  0  0  0
   -7.0394    1.0967    1.1977 C   0  0  0  0  0  0  0  0  0  0  0  0
   -7.0100    1.2779   -0.3234 C   0  0  0  0  0  0  0  0  0  0  0  0
   -5.8250    0.5198   -0.9650 C   0  0  0  0  0  0  0  0  0  0  0  0
    3.8302   -0.8020    0.0216 N   0  0  0  0  0  0  0  0  0  0  0  0
    4.9110   -1.0288   -0.9109 C   0  0  0  0  0  0  0  0  0  0  0  0
    4.6642   -1.1546   -2.2901 C   0  0  0  0  0  0  0  0  0  0  0  0
    5.7278   -1.1980   -3.1990 C   0  0  0  0  0  0  0  0  0  0  0  0
    7.0437   -1.0919   -2.7424 C   0  0  0  0  0  0  0  0  0  0  0  0
    7.3016   -0.9491   -1.3748 C   0  0  0  0  0  0  0  0  0  0  0  0
    6.2424   -0.9278   -0.4606 C   0  0  0  0  0  0  0  0  0  0  0  0
    6.5752   -0.8235    1.3028 S   0  0  0  0  0  0  0  0  0  0  0  0
    5.2968    0.4061    1.5813 C   0  0  0  0  0  0  0  0  0  0  0  0
    5.5284    1.5078    2.4092 C   0  0  0  0  0  0  0  0  0  0  0  0
    4.4836    2.3900    2.6941 C   0  0  0  0  0  0  0  0  0  0  0  0
    3.2223    2.1599    2.1384 C   0  0  0  0  0  0  0  0  0  0  0  0
    3.0248    1.0988    1.3098 N   0  0  0  0  0  0  0  0  0  0  0  0
    4.0231    0.2179    1.0203 C   0  0  0  0  0  0  0  0  0  0  0  0
    0.3758   -2.9510    0.6821 H   0  0  0  0  0  0  0  0  0  0  0  0
   -0.2703   -1.6331    1.7178 H   0  0  0  0  0  0  0  0  0  0  0  0
   -0.6678   -0.1950   -0.3198 H   0  0  0  0  0  0  0  0  0  0  0  0
    0.0047   -1.4870   -1.3468 H   0  0  0  0  0  0  0  0  0  0  0  0
   -2.4214   -0.8249    1.1507 H   0  0  0  0  0  0  0  0  0  0  0  0
   -3.5232   -2.0992    0.5809 H   0  0  0  0  0  0  0  0  0  0  0  0
   -3.8297   -0.8754   -1.5959 H   0  0  0  0  0  0  0  0  0  0  0  0
   -2.9068    0.5172   -0.9417 H   0  0  0  0  0  0  0  0  0  0  0  0
   -3.6270    1.0631    1.5751 H   0  0  0  0  0  0  0  0  0  0  0  0
   -4.2633    2.1893    0.3339 H   0  0  0  0  0  0  0  0  0  0  0  0
   -5.5874    1.0241    2.8049 H   0  0  0  0  0  0  0  0  0  0  0  0
   -5.7634    2.6449    2.0526 H   0  0  0  0  0  0  0  0  0  0  0  0
   -7.8831    1.6763    1.6306 H   0  0  0  0  0  0  0  0  0  0  0  0
   -7.2110    0.0210    1.4298 H   0  0  0  0  0  0  0  0  0  0  0  0
   -6.9220    2.3644   -0.5521 H   0  0  0  0  0  0  0  0  0  0  0  0
   -7.9686    0.9188   -0.7593 H   0  0  0  0  0  0  0  0  0  0  0  0
   -6.2170   -0.4073   -1.4395 H   0  0  0  0  0  0  0  0  0  0  0  0
   -5.3883    1.1532   -1.7716 H   0  0  0  0  0  0  0  0  0  0  0  0
    3.6516   -1.1698   -2.6704 H   0  0  0  0  0  0  0  0  0  0  0  0
    5.5303   -1.2888   -4.2610 H   0  0  0  0  0  0  0  0  0  0  0  0
    7.8642   -1.1159   -3.4488 H   0  0  0  0  0  0  0  0  0  0  0  0
    8.3238   -0.8732   -1.0267 H   0  0  0  0  0  0  0  0  0  0  0  0
    6.5036    1.6653    2.8524 H   0  0  0  0  0  0  0  0  0  0  0  0
    4.6476    3.2396    3.3460 H   0  0  0  0  0  0  0  0  0  0  0  0
    2.4048    2.8363    2.3514 H   0  0  0  0  0  0  0  0  0  0  0  0
  1  2  2  0
  2  3  1  0
  3  4  1  0
  4  5  1  0
  5  6  1  0
  6  7  1  0
  7  8  1  0
  8  9  1  0
  9 10  1  0
 10 11  1  0
 11 12  1  0
 12 13  1  0
 13 14  1  0
 14  9  1  0
  2 15  1  0
 15 16  1  0
 16 17  2  0
 17 18  1  0
 18 19  2  0
 19 20  1  0
 20 21  2  0
 21 16  1  0
 21 22  1  0
 22 23  1  0
 23 24  2  0
 24 25  1  0
 25 26  2  0
 26 27  1  0
 27 28  2  0
 28 15  1  0
 28 23  1  0
  4 29  1  0
  4 30  1  0
  5 31  1  0
  5 32  1  0
  7 33  1  0
  7 34  1  0
  8 35  1  0
  8 36  1  0
 10 37  1  0
 10 38  1  0
 11 39  1  0
 11 40  1  0
 12 41  1  0
 12 42  1  0
 13 43  1  0
 13 44  1  0
 14 45  1  0
 14 46  1  0
 17 47  1  0
 18 48  1  0
 19 49  1  0
 20 50  1  0
 24 51  1  0
 25 52  1  0
 26 53  1  0
M  END
> <ID>
HT1679

> <Class>
0.0

> <Clusters>
276

> <Fold>
4

$$$$