
     RDKit          3D

 22 22  0  0  0  0  0  0  0  0999 V2000
    3.4109    1.1632   -0.3690 N   0  0  0  0  0  0  0  0  0  0  0  0
    2.9186    0.6196    0.8324 N   0  0  0  0  0  0  0  0  0  0  0  0
    1.4513    0.6003    0.7827 C   0  0  0  0  0  0  0  0  0  0  0  0
    0.9198   -0.3949   -0.2644 C   0  0  0  0  0  0  0  0  0  0  0  0
   -0.5868   -0.4334   -0.2556 C   0  0  0  0  0  0  0  0  0  0  0  0
   -1.2697   -1.5648    0.2238 C   0  0  0  0  0  0  0  0  0  0  0  0
   -2.6678   -1.5960    0.2250 C   0  0  0  0  0  0  0  0  0  0  0  0
   -3.3939   -0.5024   -0.2543 C   0  0  0  0  0  0  0  0  0  0  0  0
   -2.7231    0.6243   -0.7372 C   0  0  0  0  0  0  0  0  0  0  0  0
   -1.3253    0.6602   -0.7403 C   0  0  0  0  0  0  0  0  0  0  0  0
    4.4402    0.9787   -0.4005 H   0  0  0  0  0  0  0  0  0  0  0  0
    3.3138    2.2024   -0.3016 H   0  0  0  0  0  0  0  0  0  0  0  0
    3.2642   -0.3663    0.9126 H   0  0  0  0  0  0  0  0  0  0  0  0
    1.0702    1.6240    0.5717 H   0  0  0  0  0  0  0  0  0  0  0  0
    1.0705    0.3070    1.7852 H   0  0  0  0  0  0  0  0  0  0  0  0
    1.2669   -0.1071   -1.2802 H   0  0  0  0  0  0  0  0  0  0  0  0
    1.3314   -1.4047   -0.0461 H   0  0  0  0  0  0  0  0  0  0  0  0
   -0.7222   -2.4199    0.6004 H   0  0  0  0  0  0  0  0  0  0  0  0
   -3.1886   -2.4685    0.5978 H   0  0  0  0  0  0  0  0  0  0  0  0
   -4.4759   -0.5286   -0.2528 H   0  0  0  0  0  0  0  0  0  0  0  0
   -3.2864    1.4697   -1.1108 H   0  0  0  0  0  0  0  0  0  0  0  0
   -0.8181    1.5373   -1.1228 H   0  0  0  0  0  0  0  0  0  0  0  0
  1  2  1  0
  2  3  1  0
  3  4  1  0
  4  5  1  0
  5  6  2  0
  6  7  1  0
  7  8  2  0
  8  9  1  0
  9 10  2  0
 10  5  1  0
  1 11  1  0
  1 12  1  0
  2 13  1  0
  3 14  1  0
  3 15  1  0
  4 16  1  0
  4 17  1  0
  6 18  1  0
  7 19  1  0
  8 20  1  0
  9 21  1  0
 10 22  1  0
M  END
> <ID>
HT1644

> <Class>
0.0

> <Clusters>
246

> <Fold>
4

$$$$