
     RDKit          3D

 65 69  0  0  0  0  0  0  0  0999 V2000
    5.7853    1.3139    1.8619 C   0  0  0  0  0  0  0  0  0  0  0  0
    5.3786   -0.1484    2.0393 C   0  0  0  0  0  0  0  0  0  0  0  0
    4.5984   -0.7088    0.8382 C   0  0  0  0  0  0  0  0  0  0  0  0
    3.1856   -0.1218    0.6985 C   0  0  0  0  0  0  0  0  0  0  0  0
    3.2554    1.1804    0.1663 O   0  0  0  0  0  0  0  0  0  0  0  0
    2.3085    1.2346   -0.8531 C   0  0  2  0  0  0  0  0  0  0  0  0
    1.0137    1.9125   -0.3510 C   0  0  0  0  0  0  0  0  0  0  0  0
    0.0456    0.7535   -0.1567 C   0  0  1  0  0  0  0  0  0  0  0  0
   -1.4668    1.0418   -0.0329 C   0  0  2  0  0  0  0  0  0  0  0  0
   -1.7215    2.0637    1.0976 C   0  0  0  0  0  0  0  0  0  0  0  0
   -3.2143    2.3013    1.3133 C   0  0  0  0  0  0  0  0  0  0  0  0
   -3.8998    0.9857    1.5800 C   0  0  0  0  0  0  0  0  0  0  0  0
   -4.5871    0.8183    2.7214 C   0  0  0  0  0  0  0  0  0  0  0  0
   -5.1986   -0.4688    3.0481 C   0  0  0  0  0  0  0  0  0  0  0  0
   -5.8567   -0.6061    4.1127 O   0  0  0  0  0  0  0  0  0  0  0  0
   -5.0292   -1.5980    2.1383 C   0  0  0  0  0  0  0  0  0  0  0  0
   -4.3509   -1.4555    0.9993 C   0  0  0  0  0  0  0  0  0  0  0  0
   -3.7475   -0.1294    0.5321 C   0  0  1  0  0  0  0  0  0  0  0  0
   -4.5386    0.2996   -0.7276 C   0  0  0  0  0  0  0  0  0  0  0  0
   -2.2004   -0.3151    0.2709 C   0  0  1  0  0  0  0  0  0  0  0  0
   -1.8118   -1.4603   -0.7335 C   0  0  1  0  0  0  0  0  0  0  0  0
   -2.4655   -1.3018   -1.9640 O   0  0  0  0  0  0  0  0  0  0  0  0
   -0.2759   -1.5838   -0.9531 C   0  0  0  0  0  0  0  0  0  0  0  0
    0.3958   -0.2254   -1.2853 C   0  0  1  0  0  0  0  0  0  0  0  0
   -0.0709    0.2763   -2.6929 C   0  0  0  0  0  0  0  0  0  0  0  0
    1.9606   -0.2121   -1.2055 C   0  0  2  0  0  0  0  0  0  0  0  0
    2.4025   -0.9717   -0.1126 O   0  0  0  0  0  0  0  0  0  0  0  0
    2.6771   -0.7032   -2.4681 C   0  0  0  0  0  0  0  0  0  0  0  0
    2.7342    0.0111   -3.4590 O   0  0  0  0  0  0  0  0  0  0  0  0
    3.3403   -2.0565   -2.5238 C   0  0  0  0  0  0  0  0  0  0  0  0
    2.3969   -3.0739   -2.3351 O   0  0  0  0  0  0  0  0  0  0  0  0
    4.8984    1.9773    1.9254 H   0  0  0  0  0  0  0  0  0  0  0  0
    6.2949    1.4626    0.8862 H   0  0  0  0  0  0  0  0  0  0  0  0
    6.4860    1.6023    2.6736 H   0  0  0  0  0  0  0  0  0  0  0  0
    4.7812   -0.2587    2.9702 H   0  0  0  0  0  0  0  0  0  0  0  0
    6.3039   -0.7518    2.1638 H   0  0  0  0  0  0  0  0  0  0  0  0
    4.5092   -1.8082    0.9805 H   0  0  0  0  0  0  0  0  0  0  0  0
    5.1720   -0.5434   -0.1000 H   0  0  0  0  0  0  0  0  0  0  0  0
    2.7080   -0.0721    1.7014 H   0  0  0  0  0  0  0  0  0  0  0  0
    2.7238    1.8100   -1.7089 H   0  0  0  0  0  0  0  0  0  0  0  0
    1.1809    2.4633    0.6007 H   0  0  0  0  0  0  0  0  0  0  0  0
    0.6234    2.6221   -1.1125 H   0  0  0  0  0  0  0  0  0  0  0  0
    0.3399    0.2875    0.8155 H   0  0  0  0  0  0  0  0  0  0  0  0
   -1.8439    1.4940   -0.9693 H   0  0  0  0  0  0  0  0  0  0  0  0
   -1.2684    1.7053    2.0490 H   0  0  0  0  0  0  0  0  0  0  0  0
   -1.2492    3.0361    0.8394 H   0  0  0  0  0  0  0  0  0  0  0  0
   -3.3444    3.0152    2.1563 H   0  0  0  0  0  0  0  0  0  0  0  0
   -3.6538    2.7767    0.4109 H   0  0  0  0  0  0  0  0  0  0  0  0
   -4.6791    1.6290    3.4346 H   0  0  0  0  0  0  0  0  0  0  0  0
   -5.4651   -2.5577    2.3877 H   0  0  0  0  0  0  0  0  0  0  0  0
   -4.2980   -2.3145    0.3427 H   0  0  0  0  0  0  0  0  0  0  0  0
   -5.5538    0.6495   -0.4383 H   0  0  0  0  0  0  0  0  0  0  0  0
   -4.6905   -0.5449   -1.4309 H   0  0  0  0  0  0  0  0  0  0  0  0
   -4.0420    1.1237   -1.2761 H   0  0  0  0  0  0  0  0  0  0  0  0
   -1.7893   -0.6618    1.2490 H   0  0  0  0  0  0  0  0  0  0  0  0
   -2.1322   -2.4274   -0.2832 H   0  0  0  0  0  0  0  0  0  0  0  0
   -2.4412   -2.1818   -2.4234 H   0  0  0  0  0  0  0  0  0  0  0  0
   -0.0757   -2.3151   -1.7643 H   0  0  0  0  0  0  0  0  0  0  0  0
    0.1634   -2.0098   -0.0250 H   0  0  0  0  0  0  0  0  0  0  0  0
    0.1207   -0.5044   -3.4595 H   0  0  0  0  0  0  0  0  0  0  0  0
    0.4669    1.1969   -2.9995 H   0  0  0  0  0  0  0  0  0  0  0  0
   -1.1456    0.5152   -2.7514 H   0  0  0  0  0  0  0  0  0  0  0  0
    4.1097   -2.1265   -1.7288 H   0  0  0  0  0  0  0  0  0  0  0  0
    3.8637   -2.1966   -3.4976 H   0  0  0  0  0  0  0  0  0  0  0  0
    1.8834   -3.1437   -3.1822 H   0  0  0  0  0  0  0  0  0  0  0  0
  1  2  1  0
  2  3  1  0
  3  4  1  0
  4  5  1  0
  5  6  1  0
  6  7  1  0
  8  7  1  0
  8  9  1  0
  9 10  1  0
 10 11  1  0
 11 12  1  0
 12 13  2  0
 13 14  1  0
 14 15  2  0
 14 16  1  0
 16 17  2  0
 17 18  1  0
 18 12  1  0
 18 19  1  6
 18 20  1  0
 20  9  1  0
 20 21  1  0
 21 22  1  0
 21 23  1  0
 23 24  1  0
 24  8  1  0
 24 25  1  6
 24 26  1  0
 26  6  1  0
 26 27  1  0
 27  4  1  0
 26 28  1  6
 28 29  2  0
 28 30  1  0
 30 31  1  0
  1 32  1  0
  1 33  1  0
  1 34  1  0
  2 35  1  0
  2 36  1  0
  3 37  1  0
  3 38  1  0
  4 39  1  0
  6 40  1  6
  7 41  1  0
  7 42  1  0
  8 43  1  1
  9 44  1  6
 10 45  1  0
 10 46  1  0
 11 47  1  0
 11 48  1  0
 13 49  1  0
 16 50  1  0
 17 51  1  0
 19 52  1  0
 19 53  1  0
 19 54  1  0
 20 55  1  1
 21 56  1  1
 22 57  1  0
 23 58  1  0
 23 59  1  0
 25 60  1  0
 25 61  1  0
 25 62  1  0
 30 63  1  0
 30 64  1  0
 31 65  1  0
M  END
> <ID>
HT0323

> <Class>
0.0

> <Clusters>
202

> <Fold>
4

$$$$