
     RDKit          3D

 24 24  0  0  0  0  0  0  0  0999 V2000
    3.1062    0.5152   -0.0484 O   0  0  0  0  0  0  0  0  0  0  0  0
    2.1979   -0.5537   -0.0158 C   0  0  0  0  0  0  0  0  0  0  0  0
    0.8424   -0.1228    0.5984 C   0  0  0  0  0  0  0  0  0  0  0  0
    1.0784    0.4201    1.8763 O   0  0  0  0  0  0  0  0  0  0  0  0
    0.0188   -1.2819    0.7695 O   0  0  0  0  0  0  0  0  0  0  0  0
   -0.7753   -1.5671   -0.3668 C   0  0  0  0  0  0  0  0  0  0  0  0
   -1.8748   -0.5018   -0.5536 C   0  0  0  0  0  0  0  0  0  0  0  0
   -3.0066   -0.8338    0.2094 O   0  0  0  0  0  0  0  0  0  0  0  0
   -1.3663    0.8931   -0.1235 C   0  0  0  0  0  0  0  0  0  0  0  0
   -2.0178    1.9091   -0.8459 O   0  0  0  0  0  0  0  0  0  0  0  0
    0.1616    0.9868   -0.2786 C   0  0  0  0  0  0  0  0  0  0  0  0
    0.5880    2.2702    0.1085 O   0  0  0  0  0  0  0  0  0  0  0  0
    3.5053    0.5811    0.8581 H   0  0  0  0  0  0  0  0  0  0  0  0
    2.6248   -1.4034    0.5656 H   0  0  0  0  0  0  0  0  0  0  0  0
    2.0519   -0.9180   -1.0539 H   0  0  0  0  0  0  0  0  0  0  0  0
    1.4140   -0.3126    2.4571 H   0  0  0  0  0  0  0  0  0  0  0  0
   -1.2394   -2.5673   -0.2336 H   0  0  0  0  0  0  0  0  0  0  0  0
   -0.1484   -1.6388   -1.2831 H   0  0  0  0  0  0  0  0  0  0  0  0
   -2.1479   -0.4788   -1.6353 H   0  0  0  0  0  0  0  0  0  0  0  0
   -3.4832   -1.5545   -0.2800 H   0  0  0  0  0  0  0  0  0  0  0  0
   -1.6026    1.0442    0.9542 H   0  0  0  0  0  0  0  0  0  0  0  0
   -1.7449    1.8265   -1.7972 H   0  0  0  0  0  0  0  0  0  0  0  0
    0.3996    0.8214   -1.3580 H   0  0  0  0  0  0  0  0  0  0  0  0
    1.4184    2.4668   -0.3977 H   0  0  0  0  0  0  0  0  0  0  0  0
  1  2  1  0
  2  3  1  0
  3  4  1  0
  3  5  1  0
  5  6  1  0
  6  7  1  0
  7  8  1  0
  7  9  1  0
  9 10  1  0
  9 11  1  0
 11  3  1  0
 11 12  1  0
  1 13  1  0
  2 14  1  0
  2 15  1  0
  4 16  1  0
  6 17  1  0
  6 18  1  0
  7 19  1  0
  8 20  1  0
  9 21  1  0
 10 22  1  0
 11 23  1  0
 12 24  1  0
M  END
> <ID>
HT2773

> <Class>
0.0

> <Clusters>
70

> <Fold>
4

$$$$