
     RDKit          3D

 36 36  0  0  0  0  0  0  0  0999 V2000
   -4.3745    1.9169    0.2723 C   0  0  0  0  0  0  0  0  0  0  0  0
   -3.0175    1.6115   -0.3554 C   0  0  0  0  0  0  0  0  0  0  0  0
   -2.3452    0.4160    0.3306 C   0  0  0  0  0  0  0  0  0  0  0  0
   -0.9798    0.1121   -0.3086 C   0  0  0  0  0  0  0  0  0  0  0  0
   -0.2212   -1.0411    0.4087 C   0  0  0  0  0  0  0  0  0  0  0  0
   -0.8037   -2.4187   -0.0058 C   0  0  0  0  0  0  0  0  0  0  0  0
   -0.3151   -3.5714    0.8743 C   0  0  0  0  0  0  0  0  0  0  0  0
    1.3114   -0.9717    0.1451 C   0  0  0  0  0  0  0  0  0  0  0  0
    1.6142   -0.8754   -1.2852 N   0  0  0  0  0  0  0  0  0  0  0  0
    2.3319    0.3312   -1.5036 C   0  0  0  0  0  0  0  0  0  0  0  0
    2.6801    0.7330   -2.6448 O   0  0  0  0  0  0  0  0  0  0  0  0
    2.5806    1.0475   -0.3093 N   0  0  0  0  0  0  0  0  0  0  0  0
    3.1006    2.7354   -0.1797 S   0  0  0  0  0  0  0  0  0  0  0  0
    4.8616    2.3484    0.1244 C   0  0  0  0  0  0  0  0  0  0  0  0
    5.5638    1.4605   -1.2505 Cl  0  0  0  0  0  0  0  0  0  0  0  0
    5.0546    1.3933    1.6152 Cl  0  0  0  0  0  0  0  0  0  0  0  0
    5.7486    3.8765    0.3179 Cl  0  0  0  0  0  0  0  0  0  0  0  0
    1.9359    0.2815    0.6988 C   0  0  0  0  0  0  0  0  0  0  0  0
    1.8877    0.6308    1.9081 O   0  0  0  0  0  0  0  0  0  0  0  0
   -5.0527    1.0430    0.1699 H   0  0  0  0  0  0  0  0  0  0  0  0
   -4.2548    2.1645    1.3486 H   0  0  0  0  0  0  0  0  0  0  0  0
   -4.8352    2.7859   -0.2429 H   0  0  0  0  0  0  0  0  0  0  0  0
   -2.3699    2.5107   -0.2637 H   0  0  0  0  0  0  0  0  0  0  0  0
   -3.1623    1.3907   -1.4355 H   0  0  0  0  0  0  0  0  0  0  0  0
   -3.0140   -0.4654    0.2456 H   0  0  0  0  0  0  0  0  0  0  0  0
   -2.2029    0.6481    1.4090 H   0  0  0  0  0  0  0  0  0  0  0  0
   -0.3795    1.0458   -0.2638 H   0  0  0  0  0  0  0  0  0  0  0  0
   -1.1166   -0.1377   -1.3841 H   0  0  0  0  0  0  0  0  0  0  0  0
   -0.3714   -0.9238    1.5057 H   0  0  0  0  0  0  0  0  0  0  0  0
   -0.5617   -2.6403   -1.0670 H   0  0  0  0  0  0  0  0  0  0  0  0
   -1.9093   -2.4003    0.0764 H   0  0  0  0  0  0  0  0  0  0  0  0
   -0.9107   -4.4820    0.6519 H   0  0  0  0  0  0  0  0  0  0  0  0
    0.7485   -3.8078    0.6680 H   0  0  0  0  0  0  0  0  0  0  0  0
   -0.4415   -3.3242    1.9497 H   0  0  0  0  0  0  0  0  0  0  0  0
    1.8409   -1.8414    0.5833 H   0  0  0  0  0  0  0  0  0  0  0  0
    1.3790   -1.5820   -2.0167 H   0  0  0  0  0  0  0  0  0  0  0  0
  1  2  1  0
  2  3  1  0
  3  4  1  0
  4  5  1  0
  5  6  1  0
  6  7  1  0
  5  8  1  0
  8  9  1  0
  9 10  1  0
 10 11  2  0
 10 12  1  0
 12 13  1  0
 13 14  1  0
 14 15  1  0
 14 16  1  0
 14 17  1  0
 12 18  1  0
 18  8  1  0
 18 19  2  0
  1 20  1  0
  1 21  1  0
  1 22  1  0
  2 23  1  0
  2 24  1  0
  3 25  1  0
  3 26  1  0
  4 27  1  0
  4 28  1  0
  5 29  1  0
  6 30  1  0
  6 31  1  0
  7 32  1  0
  7 33  1  0
  7 34  1  0
  8 35  1  0
  9 36  1  0
M  END
> <ID>
HT3591

> <Class>
0.0

> <Clusters>
227

> <Fold>
4

$$$$