
     RDKit          3D

 83 84  0  0  0  0  0  0  0  0999 V2000
   -4.7137   -2.8453   -1.2268 C   0  0  0  0  0  0  0  0  0  0  0  0
   -4.6548   -2.6350    0.3103 C   0  0  0  0  0  0  0  0  0  0  0  0
   -5.9762   -3.0528    1.0069 C   0  0  0  0  0  0  0  0  0  0  0  0
   -3.5917   -3.6564    0.8099 C   0  0  0  0  0  0  0  0  0  0  0  0
   -4.2981   -1.1523    0.6503 C   0  0  0  0  0  0  0  0  0  0  0  0
   -3.1294   -0.8785    1.3995 C   0  0  0  0  0  0  0  0  0  0  0  0
   -2.7085    0.4191    1.6471 C   0  0  0  0  0  0  0  0  0  0  0  0
   -1.1762    0.7243    2.5430 S   0  0  0  0  0  0  0  0  0  0  0  0
    0.0644    0.5724    1.1797 C   0  0  0  0  0  0  0  0  0  0  0  0
   -0.5073    0.9475   -0.1995 C   0  0  0  0  0  0  0  0  0  0  0  0
    0.5699   -0.8796    1.1697 C   0  0  0  0  0  0  0  0  0  0  0  0
    1.3969    1.7818    1.6033 S   0  0  0  0  0  0  0  0  0  0  0  0
    2.7946    1.0528    0.7297 C   0  0  0  0  0  0  0  0  0  0  0  0
    3.6633    0.2148    1.4197 C   0  0  0  0  0  0  0  0  0  0  0  0
    4.7855   -0.3719    0.7965 C   0  0  0  0  0  0  0  0  0  0  0  0
    5.0218   -0.0435   -0.5832 C   0  0  0  0  0  0  0  0  0  0  0  0
    6.1269   -0.5457   -1.2783 O   0  0  0  0  0  0  0  0  0  0  0  0
    4.1380    0.8257   -1.2973 C   0  0  0  0  0  0  0  0  0  0  0  0
    3.0481    1.3817   -0.5941 C   0  0  0  0  0  0  0  0  0  0  0  0
    4.3802    1.1726   -2.7983 C   0  0  0  0  0  0  0  0  0  0  0  0
    5.7376    1.8947   -2.9683 C   0  0  0  0  0  0  0  0  0  0  0  0
    4.3533   -0.1145   -3.6585 C   0  0  0  0  0  0  0  0  0  0  0  0
    3.2985    2.1169   -3.3865 C   0  0  0  0  0  0  0  0  0  0  0  0
    5.7477   -1.2802    1.6256 C   0  0  0  0  0  0  0  0  0  0  0  0
    5.2152   -1.6005    3.0517 C   0  0  0  0  0  0  0  0  0  0  0  0
    5.9702   -2.6528    0.9150 C   0  0  0  0  0  0  0  0  0  0  0  0
    7.0856   -0.5289    1.8356 C   0  0  0  0  0  0  0  0  0  0  0  0
   -3.4756    1.4955    1.2321 C   0  0  0  0  0  0  0  0  0  0  0  0
   -4.6864    1.3147    0.5318 C   0  0  0  0  0  0  0  0  0  0  0  0
   -5.0934   -0.0239    0.2334 C   0  0  0  0  0  0  0  0  0  0  0  0
   -6.2882   -0.1705   -0.4771 O   0  0  0  0  0  0  0  0  0  0  0  0
   -5.5440    2.5457    0.0997 C   0  0  0  0  0  0  0  0  0  0  0  0
   -6.9494    2.4770    0.7490 C   0  0  0  0  0  0  0  0  0  0  0  0
   -4.9289    3.9024    0.5366 C   0  0  0  0  0  0  0  0  0  0  0  0
   -5.6696    2.5975   -1.4427 C   0  0  0  0  0  0  0  0  0  0  0  0
   -5.3335   -2.1220   -1.7771 H   0  0  0  0  0  0  0  0  0  0  0  0
   -3.6933   -2.7570   -1.6629 H   0  0  0  0  0  0  0  0  0  0  0  0
   -5.0974   -3.8596   -1.4684 H   0  0  0  0  0  0  0  0  0  0  0  0
   -6.8337   -2.3940    0.8103 H   0  0  0  0  0  0  0  0  0  0  0  0
   -5.8394   -3.0500    2.1090 H   0  0  0  0  0  0  0  0  0  0  0  0
   -6.2760   -4.0786    0.6982 H   0  0  0  0  0  0  0  0  0  0  0  0
   -3.5114   -3.6551    1.9176 H   0  0  0  0  0  0  0  0  0  0  0  0
   -2.5918   -3.4454    0.3737 H   0  0  0  0  0  0  0  0  0  0  0  0
   -3.8657   -4.6916    0.5133 H   0  0  0  0  0  0  0  0  0  0  0  0
   -2.5009   -1.6578    1.7921 H   0  0  0  0  0  0  0  0  0  0  0  0
   -0.9863    1.9512   -0.1572 H   0  0  0  0  0  0  0  0  0  0  0  0
    0.2995    0.9766   -0.9639 H   0  0  0  0  0  0  0  0  0  0  0  0
   -1.2520    0.1997   -0.5425 H   0  0  0  0  0  0  0  0  0  0  0  0
    1.0573   -1.1276    2.1376 H   0  0  0  0  0  0  0  0  0  0  0  0
   -0.2742   -1.5831    1.0227 H   0  0  0  0  0  0  0  0  0  0  0  0
    1.2900   -1.0572    0.3438 H   0  0  0  0  0  0  0  0  0  0  0  0
    3.4310    0.0404    2.4573 H   0  0  0  0  0  0  0  0  0  0  0  0
    6.8395   -1.1566   -0.9181 H   0  0  0  0  0  0  0  0  0  0  0  0
    2.3677    2.0774   -1.0560 H   0  0  0  0  0  0  0  0  0  0  0  0
    5.7917    2.7705   -2.2872 H   0  0  0  0  0  0  0  0  0  0  0  0
    6.6032    1.2382   -2.7574 H   0  0  0  0  0  0  0  0  0  0  0  0
    5.8669    2.2580   -4.0108 H   0  0  0  0  0  0  0  0  0  0  0  0
    4.4396    0.1331   -4.7379 H   0  0  0  0  0  0  0  0  0  0  0  0
    5.1879   -0.8045   -3.4307 H   0  0  0  0  0  0  0  0  0  0  0  0
    3.3979   -0.6578   -3.5047 H   0  0  0  0  0  0  0  0  0  0  0  0
    2.2879    1.6584   -3.3222 H   0  0  0  0  0  0  0  0  0  0  0  0
    3.2998    3.0985   -2.8641 H   0  0  0  0  0  0  0  0  0  0  0  0
    3.4957    2.3245   -4.4595 H   0  0  0  0  0  0  0  0  0  0  0  0
    5.9072   -2.2936    3.5827 H   0  0  0  0  0  0  0  0  0  0  0  0
    4.2183   -2.0897    3.0034 H   0  0  0  0  0  0  0  0  0  0  0  0
    5.1457   -0.6851    3.6793 H   0  0  0  0  0  0  0  0  0  0  0  0
    5.6630   -3.5187    1.5394 H   0  0  0  0  0  0  0  0  0  0  0  0
    5.3681   -2.7389   -0.0134 H   0  0  0  0  0  0  0  0  0  0  0  0
    7.0369   -2.8204    0.6608 H   0  0  0  0  0  0  0  0  0  0  0  0
    7.8102   -1.1601    2.3982 H   0  0  0  0  0  0  0  0  0  0  0  0
    6.9111    0.4045    2.4155 H   0  0  0  0  0  0  0  0  0  0  0  0
    7.5675   -0.2305    0.8853 H   0  0  0  0  0  0  0  0  0  0  0  0
   -3.0960    2.4741    1.4821 H   0  0  0  0  0  0  0  0  0  0  0  0
   -6.7515   -1.0251   -0.7322 H   0  0  0  0  0  0  0  0  0  0  0  0
   -6.8575    2.3853    1.8558 H   0  0  0  0  0  0  0  0  0  0  0  0
   -7.5551    1.6275    0.3801 H   0  0  0  0  0  0  0  0  0  0  0  0
   -7.5327    3.3988    0.5219 H   0  0  0  0  0  0  0  0  0  0  0  0
   -4.8363    3.9560    1.6451 H   0  0  0  0  0  0  0  0  0  0  0  0
   -3.9301    4.0600    0.0717 H   0  0  0  0  0  0  0  0  0  0  0  0
   -5.5719    4.7550    0.2195 H   0  0  0  0  0  0  0  0  0  0  0  0
   -6.1659    3.5403   -1.7669 H   0  0  0  0  0  0  0  0  0  0  0  0
   -6.2769    1.7693   -1.8513 H   0  0  0  0  0  0  0  0  0  0  0  0
   -4.6605    2.5577   -1.9112 H   0  0  0  0  0  0  0  0  0  0  0  0
  1  2  1  0
  2  3  1  0
  2  4  1  0
  2  5  1  0
  5  6  2  0
  6  7  1  0
  7  8  1  0
  8  9  1  0
  9 10  1  0
  9 11  1  0
  9 12  1  0
 12 13  1  0
 13 14  2  0
 14 15  1  0
 15 16  2  0
 16 17  1  0
 16 18  1  0
 18 19  2  0
 19 13  1  0
 18 20  1  0
 20 21  1  0
 20 22  1  0
 20 23  1  0
 15 24  1  0
 24 25  1  0
 24 26  1  0
 24 27  1  0
  7 28  2  0
 28 29  1  0
 29 30  2  0
 30  5  1  0
 30 31  1  0
 29 32  1  0
 32 33  1  0
 32 34  1  0
 32 35  1  0
  1 36  1  0
  1 37  1  0
  1 38  1  0
  3 39  1  0
  3 40  1  0
  3 41  1  0
  4 42  1  0
  4 43  1  0
  4 44  1  0
  6 45  1  0
 10 46  1  0
 10 47  1  0
 10 48  1  0
 11 49  1  0
 11 50  1  0
 11 51  1  0
 14 52  1  0
 17 53  1  0
 19 54  1  0
 21 55  1  0
 21 56  1  0
 21 57  1  0
 22 58  1  0
 22 59  1  0
 22 60  1  0
 23 61  1  0
 23 62  1  0
 23 63  1  0
 25 64  1  0
 25 65  1  0
 25 66  1  0
 26 67  1  0
 26 68  1  0
 26 69  1  0
 27 70  1  0
 27 71  1  0
 27 72  1  0
 28 73  1  0
 31 74  1  0
 33 75  1  0
 33 76  1  0
 33 77  1  0
 34 78  1  0
 34 79  1  0
 34 80  1  0
 35 81  1  0
 35 82  1  0
 35 83  1  0
M  END
> <ID>
HT1742

> <Class>
0.0

> <Clusters>
203

> <Fold>
4

$$$$