
     RDKit          3D

 20 22  0  0  0  0  0  0  0  0999 V2000
    4.1518    1.4411   -0.9836 O   0  0  0  0  0  0  0  0  0  0  0  0
    3.0884    0.8070   -0.7562 C   0  0  0  0  0  0  0  0  0  0  0  0
    1.9812    1.4731   -0.4383 O   0  0  0  0  0  0  0  0  0  0  0  0
    0.8260    0.8633   -0.1865 C   0  0  0  0  0  0  0  0  0  0  0  0
   -0.3103    1.6255    0.1446 C   0  0  0  0  0  0  0  0  0  0  0  0
   -1.4986    0.9453    0.4004 C   0  0  0  0  0  0  0  0  0  0  0  0
   -2.6609    1.4571    0.7227 O   0  0  0  0  0  0  0  0  0  0  0  0
   -3.5105    0.4566    0.8741 C   0  0  0  0  0  0  0  0  0  0  0  0
   -2.8763   -0.7592    0.6410 C   0  0  0  0  0  0  0  0  0  0  0  0
   -1.5789   -0.4197    0.3370 C   0  0  0  0  0  0  0  0  0  0  0  0
   -0.4808   -1.2132    0.0135 C   0  0  0  0  0  0  0  0  0  0  0  0
    0.7406   -0.5596   -0.2522 C   0  0  0  0  0  0  0  0  0  0  0  0
    1.8924   -1.2775   -0.5844 C   0  0  0  0  0  0  0  0  0  0  0  0
    3.0785   -0.5900   -0.8392 C   0  0  0  0  0  0  0  0  0  0  0  0
   -0.2653    2.7056    0.1995 H   0  0  0  0  0  0  0  0  0  0  0  0
   -4.5512    0.5804    1.1423 H   0  0  0  0  0  0  0  0  0  0  0  0
   -3.3090   -1.7497    0.6887 H   0  0  0  0  0  0  0  0  0  0  0  0
   -0.5704   -2.2921   -0.0300 H   0  0  0  0  0  0  0  0  0  0  0  0
    1.8753   -2.3590   -0.6464 H   0  0  0  0  0  0  0  0  0  0  0  0
    3.9779   -1.1352   -1.0978 H   0  0  0  0  0  0  0  0  0  0  0  0
  1  2  2  0
  2  3  1  0
  3  4  1  0
  4  5  2  0
  5  6  1  0
  6  7  1  0
  7  8  1  0
  8  9  2  0
  9 10  1  0
 10  6  2  0
 10 11  1  0
 11 12  2  0
 12  4  1  0
 12 13  1  0
 13 14  2  0
 14  2  1  0
  5 15  1  0
  8 16  1  0
  9 17  1  0
 11 18  1  0
 13 19  1  0
 14 20  1  0
M  END
> <ID>
HT2802

> <Class>
0.0

> <Clusters>
255

> <Fold>
4

$$$$