
     RDKit          3D

 50 54  0  0  0  0  0  0  0  0999 V2000
   -4.0547   -2.6403    0.6821 C   0  0  0  0  0  0  0  0  0  0  0  0
   -2.6606   -2.1729    0.6367 N   0  0  0  0  0  0  0  0  0  0  0  0
   -2.4562   -1.0720    1.5997 C   0  0  0  0  0  0  0  0  0  0  0  0
   -1.0332   -0.4926    1.5188 C   0  0  0  0  0  0  0  0  0  0  0  0
   -0.5158   -0.3451    0.0372 C   0  0  0  0  0  0  0  0  0  0  0  0
    0.2897    0.9106   -0.2819 C   0  0  0  0  0  0  0  0  0  0  0  0
    1.5997    0.6090    0.2216 O   0  0  0  0  0  0  0  0  0  0  0  0
    1.7405   -0.7775    0.0331 C   0  0  0  0  0  0  0  0  0  0  0  0
    2.8921   -1.5734   -0.0710 C   0  0  0  0  0  0  0  0  0  0  0  0
    4.1841   -1.0877    0.1706 O   0  0  0  0  0  0  0  0  0  0  0  0
    4.6224    0.2058   -0.1355 C   0  0  0  0  0  0  0  0  0  0  0  0
    4.0147    0.9121   -0.9847 O   0  0  0  0  0  0  0  0  0  0  0  0
    5.8953    0.7046    0.4585 C   0  0  0  0  0  0  0  0  0  0  0  0
    2.7123   -2.9344   -0.4305 C   0  0  0  0  0  0  0  0  0  0  0  0
    1.4245   -3.4462   -0.7501 C   0  0  0  0  0  0  0  0  0  0  0  0
    0.2900   -2.6223   -0.6258 C   0  0  0  0  0  0  0  0  0  0  0  0
   -1.1143   -2.9803   -1.1230 C   0  0  0  0  0  0  0  0  0  0  0  0
   -2.2168   -1.9040   -0.7630 C   0  0  0  0  0  0  0  0  0  0  0  0
   -1.6235   -0.4732   -0.9755 C   0  0  0  0  0  0  0  0  0  0  0  0
   -2.4985    0.7737   -0.8287 C   0  0  0  0  0  0  0  0  0  0  0  0
   -1.9812    1.9681   -0.3829 C   0  0  0  0  0  0  0  0  0  0  0  0
   -0.5119    2.1663    0.0899 C   0  0  0  0  0  0  0  0  0  0  0  0
    0.0642    3.2937   -0.5696 O   0  0  0  0  0  0  0  0  0  0  0  0
   -0.2856    4.6177   -0.2822 C   0  0  0  0  0  0  0  0  0  0  0  0
   -1.1236    4.8836    0.6219 O   0  0  0  0  0  0  0  0  0  0  0  0
    0.3249    5.7269   -1.0689 C   0  0  0  0  0  0  0  0  0  0  0  0
    0.5128   -1.3407   -0.1709 C   0  0  0  0  0  0  0  0  0  0  0  0
   -4.1730   -3.5458    0.0488 H   0  0  0  0  0  0  0  0  0  0  0  0
   -4.3331   -2.9254    1.7196 H   0  0  0  0  0  0  0  0  0  0  0  0
   -4.7490   -1.8491    0.3219 H   0  0  0  0  0  0  0  0  0  0  0  0
   -2.6143   -1.4533    2.6326 H   0  0  0  0  0  0  0  0  0  0  0  0
   -3.2053   -0.2654    1.4420 H   0  0  0  0  0  0  0  0  0  0  0  0
   -1.0384    0.4670    2.0659 H   0  0  0  0  0  0  0  0  0  0  0  0
   -0.3621   -1.1496    2.1191 H   0  0  0  0  0  0  0  0  0  0  0  0
    0.4232    0.9893   -1.3919 H   0  0  0  0  0  0  0  0  0  0  0  0
    6.7415    0.4495   -0.2127 H   0  0  0  0  0  0  0  0  0  0  0  0
    6.0599    0.2321    1.4495 H   0  0  0  0  0  0  0  0  0  0  0  0
    5.8499    1.8064    0.5901 H   0  0  0  0  0  0  0  0  0  0  0  0
    3.5759   -3.5805   -0.5217 H   0  0  0  0  0  0  0  0  0  0  0  0
    1.3210   -4.4629   -1.1062 H   0  0  0  0  0  0  0  0  0  0  0  0
   -1.4075   -3.9730   -0.7187 H   0  0  0  0  0  0  0  0  0  0  0  0
   -1.0656   -3.0761   -2.2290 H   0  0  0  0  0  0  0  0  0  0  0  0
   -3.0561   -2.0233   -1.4870 H   0  0  0  0  0  0  0  0  0  0  0  0
   -1.2197   -0.4442   -2.0146 H   0  0  0  0  0  0  0  0  0  0  0  0
   -3.5432    0.7193   -1.1174 H   0  0  0  0  0  0  0  0  0  0  0  0
   -2.6573    2.8127   -0.3008 H   0  0  0  0  0  0  0  0  0  0  0  0
   -0.4736    2.3408    1.1844 H   0  0  0  0  0  0  0  0  0  0  0  0
    1.1799    5.3461   -1.6662 H   0  0  0  0  0  0  0  0  0  0  0  0
   -0.4346    6.1566   -1.7549 H   0  0  0  0  0  0  0  0  0  0  0  0
    0.6906    6.5194   -0.3824 H   0  0  0  0  0  0  0  0  0  0  0  0
  1  2  1  0
  2  3  1  0
  3  4  1  0
  4  5  1  0
  5  6  1  0
  6  7  1  0
  7  8  1  0
  8  9  2  0
  9 10  1  0
 10 11  1  0
 11 12  2  0
 11 13  1  0
  9 14  1  0
 14 15  2  0
 15 16  1  0
 16 17  1  0
 17 18  1  0
 18  2  1  0
 18 19  1  0
 19  5  1  0
 19 20  1  0
 20 21  2  0
 21 22  1  0
 22  6  1  0
 22 23  1  0
 23 24  1  0
 24 25  2  0
 24 26  1  0
 16 27  2  0
 27  5  1  0
 27  8  1  0
  1 28  1  0
  1 29  1  0
  1 30  1  0
  3 31  1  0
  3 32  1  0
  4 33  1  0
  4 34  1  0
  6 35  1  0
 13 36  1  0
 13 37  1  0
 13 38  1  0
 14 39  1  0
 15 40  1  0
 17 41  1  0
 17 42  1  0
 18 43  1  0
 19 44  1  0
 20 45  1  0
 21 46  1  0
 22 47  1  0
 26 48  1  0
 26 49  1  0
 26 50  1  0
M  END
> <ID>
HT3678

> <Class>
0.0

> <Clusters>
63

> <Fold>
4

$$$$