
     RDKit          3D

 46 48  0  0  0  0  0  0  0  0999 V2000
    6.7713   -3.3807    0.2897 C   0  0  0  0  0  0  0  0  0  0  0  0
    5.8234   -2.2441    0.4689 C   0  0  0  0  0  0  0  0  0  0  0  0
    6.1952   -1.2247    1.1106 O   0  0  0  0  0  0  0  0  0  0  0  0
    4.5567   -2.3034   -0.1270 O   0  0  0  0  0  0  0  0  0  0  0  0
    3.4792   -1.4551    0.1693 C   0  0  0  0  0  0  0  0  0  0  0  0
    2.5301   -1.2108   -0.8284 C   0  0  0  0  0  0  0  0  0  0  0  0
    1.4344   -0.3805   -0.5794 C   0  0  0  0  0  0  0  0  0  0  0  0
    1.2588    0.2114    0.6857 C   0  0  0  0  0  0  0  0  0  0  0  0
    2.2061   -0.0483    1.6915 C   0  0  0  0  0  0  0  0  0  0  0  0
    3.3020   -0.8787    1.4396 C   0  0  0  0  0  0  0  0  0  0  0  0
    0.0746    1.1217    0.9723 C   0  0  0  0  0  0  0  0  0  0  0  0
   -1.2351    0.4023    0.6925 C   0  0  0  0  0  0  0  0  0  0  0  0
   -1.8030   -0.4057    1.6918 C   0  0  0  0  0  0  0  0  0  0  0  0
   -2.9907   -1.1021    1.4533 C   0  0  0  0  0  0  0  0  0  0  0  0
   -3.6363   -1.0052    0.2164 C   0  0  0  0  0  0  0  0  0  0  0  0
   -4.8221   -1.7297    0.0230 O   0  0  0  0  0  0  0  0  0  0  0  0
   -5.8501   -1.3800   -0.8620 C   0  0  0  0  0  0  0  0  0  0  0  0
   -5.9448   -0.2092   -1.3200 O   0  0  0  0  0  0  0  0  0  0  0  0
   -6.9141   -2.3769   -1.1726 C   0  0  0  0  0  0  0  0  0  0  0  0
   -3.0566   -0.2252   -0.7999 C   0  0  0  0  0  0  0  0  0  0  0  0
   -1.8679    0.4711   -0.5642 C   0  0  0  0  0  0  0  0  0  0  0  0
    0.1729    2.4566    0.2575 C   0  0  0  0  0  0  0  0  0  0  0  0
   -0.6971    3.5027    0.6060 C   0  0  0  0  0  0  0  0  0  0  0  0
   -0.6085    4.7241   -0.0643 C   0  0  0  0  0  0  0  0  0  0  0  0
    0.3413    4.8965   -1.0718 C   0  0  0  0  0  0  0  0  0  0  0  0
    1.1924    3.8385   -1.3951 C   0  0  0  0  0  0  0  0  0  0  0  0
    1.0907    2.6559   -0.7322 N   0  0  0  0  0  0  0  0  0  0  0  0
    7.0527   -3.7915    1.2817 H   0  0  0  0  0  0  0  0  0  0  0  0
    6.2975   -4.1842   -0.3125 H   0  0  0  0  0  0  0  0  0  0  0  0
    7.6841   -3.0274   -0.2341 H   0  0  0  0  0  0  0  0  0  0  0  0
    2.6487   -1.6588   -1.8069 H   0  0  0  0  0  0  0  0  0  0  0  0
    0.7284   -0.1958   -1.3775 H   0  0  0  0  0  0  0  0  0  0  0  0
    2.0943    0.3845    2.6778 H   0  0  0  0  0  0  0  0  0  0  0  0
    3.9895   -1.0900    2.2469 H   0  0  0  0  0  0  0  0  0  0  0  0
    0.0877    1.3702    2.0581 H   0  0  0  0  0  0  0  0  0  0  0  0
   -1.3229   -0.4996    2.6581 H   0  0  0  0  0  0  0  0  0  0  0  0
   -3.4153   -1.7172    2.2365 H   0  0  0  0  0  0  0  0  0  0  0  0
   -7.7497   -2.2630   -0.4513 H   0  0  0  0  0  0  0  0  0  0  0  0
   -7.2953   -2.2209   -2.2039 H   0  0  0  0  0  0  0  0  0  0  0  0
   -6.5026   -3.4050   -1.0948 H   0  0  0  0  0  0  0  0  0  0  0  0
   -3.4992   -0.1777   -1.7853 H   0  0  0  0  0  0  0  0  0  0  0  0
   -1.4391    1.0550   -1.3685 H   0  0  0  0  0  0  0  0  0  0  0  0
   -1.4370    3.3695    1.3857 H   0  0  0  0  0  0  0  0  0  0  0  0
   -1.2757    5.5354    0.1965 H   0  0  0  0  0  0  0  0  0  0  0  0
    0.4171    5.8398   -1.5968 H   0  0  0  0  0  0  0  0  0  0  0  0
    1.9338    3.9563   -2.1740 H   0  0  0  0  0  0  0  0  0  0  0  0
  1  2  1  0
  2  3  2  0
  2  4  1  0
  4  5  1  0
  5  6  2  0
  6  7  1  0
  7  8  2  0
  8  9  1  0
  9 10  2  0
 10  5  1  0
  8 11  1  0
 11 12  1  0
 12 13  2  0
 13 14  1  0
 14 15  2  0
 15 16  1  0
 16 17  1  0
 17 18  2  0
 17 19  1  0
 15 20  1  0
 20 21  2  0
 21 12  1  0
 11 22  1  0
 22 23  2  0
 23 24  1  0
 24 25  2  0
 25 26  1  0
 26 27  2  0
 27 22  1  0
  1 28  1  0
  1 29  1  0
  1 30  1  0
  6 31  1  0
  7 32  1  0
  9 33  1  0
 10 34  1  0
 11 35  1  0
 13 36  1  0
 14 37  1  0
 19 38  1  0
 19 39  1  0
 19 40  1  0
 20 41  1  0
 21 42  1  0
 23 43  1  0
 24 44  1  0
 25 45  1  0
 26 46  1  0
M  END
> <ID>
HT0290

> <Class>
0.0

> <Clusters>
273

> <Fold>
4

$$$$