
     RDKit          3D

 39 39  0  0  0  0  0  0  0  0999 V2000
   -1.9599   -1.7056    1.2883 C   0  0  0  0  0  0  0  0  0  0  0  0
   -1.2928   -0.4434    0.6915 C   0  0  0  0  0  0  0  0  0  0  0  0
   -2.0409   -0.0188   -0.6082 C   0  0  0  0  0  0  0  0  0  0  0  0
   -3.5079    0.0630   -0.4148 N   0  0  0  0  0  0  0  0  0  0  0  0
   -3.8892    1.3124    0.2680 C   0  0  0  0  0  0  0  0  0  0  0  0
   -4.1953   -0.0132   -1.7141 C   0  0  0  0  0  0  0  0  0  0  0  0
    0.2551   -0.6487    0.4590 C   0  0  0  0  0  0  0  0  0  0  0  0
    0.9401   -1.0124    1.8079 C   0  0  0  0  0  0  0  0  0  0  0  0
    0.4270   -1.6994   -0.4667 O   0  0  0  0  0  0  0  0  0  0  0  0
    0.8895    0.6614   -0.1142 C   0  0  0  0  0  0  0  0  0  0  0  0
    2.3989    0.6431   -0.2182 C   0  0  0  0  0  0  0  0  0  0  0  0
    3.0320    0.0053   -1.2989 C   0  0  0  0  0  0  0  0  0  0  0  0
    4.4263    0.0052   -1.4008 C   0  0  0  0  0  0  0  0  0  0  0  0
    5.2006    0.6509   -0.4317 C   0  0  0  0  0  0  0  0  0  0  0  0
    6.9498    0.6498   -0.5614 Cl  0  0  0  0  0  0  0  0  0  0  0  0
    4.5783    1.3024    0.6377 C   0  0  0  0  0  0  0  0  0  0  0  0
    3.1841    1.3049    0.7420 C   0  0  0  0  0  0  0  0  0  0  0  0
   -3.0548   -1.5688    1.4020 H   0  0  0  0  0  0  0  0  0  0  0  0
   -1.7815   -2.5906    0.6417 H   0  0  0  0  0  0  0  0  0  0  0  0
   -1.5846   -1.9121    2.3102 H   0  0  0  0  0  0  0  0  0  0  0  0
   -1.4122    0.3728    1.4360 H   0  0  0  0  0  0  0  0  0  0  0  0
   -1.6662    0.9601   -0.9757 H   0  0  0  0  0  0  0  0  0  0  0  0
   -1.8021   -0.7730   -1.3919 H   0  0  0  0  0  0  0  0  0  0  0  0
   -4.9921    1.3569    0.3986 H   0  0  0  0  0  0  0  0  0  0  0  0
   -3.5605    2.2069   -0.3068 H   0  0  0  0  0  0  0  0  0  0  0  0
   -3.4506    1.3507    1.2856 H   0  0  0  0  0  0  0  0  0  0  0  0
   -5.2963    0.0462   -1.5734 H   0  0  0  0  0  0  0  0  0  0  0  0
   -3.8696    0.8087   -2.3906 H   0  0  0  0  0  0  0  0  0  0  0  0
   -3.9854   -0.9899   -2.2009 H   0  0  0  0  0  0  0  0  0  0  0  0
    2.0422   -1.0803    1.7028 H   0  0  0  0  0  0  0  0  0  0  0  0
    0.7082   -0.2523    2.5842 H   0  0  0  0  0  0  0  0  0  0  0  0
    0.6199   -2.0123    2.1637 H   0  0  0  0  0  0  0  0  0  0  0  0
    1.3711   -2.0027   -0.4320 H   0  0  0  0  0  0  0  0  0  0  0  0
    0.5745    1.5224    0.5164 H   0  0  0  0  0  0  0  0  0  0  0  0
    0.5043    0.8599   -1.1355 H   0  0  0  0  0  0  0  0  0  0  0  0
    2.4460   -0.4867   -2.0651 H   0  0  0  0  0  0  0  0  0  0  0  0
    4.9032   -0.4934   -2.2350 H   0  0  0  0  0  0  0  0  0  0  0  0
    5.1732    1.8078    1.3878 H   0  0  0  0  0  0  0  0  0  0  0  0
    2.7175    1.8128    1.5770 H   0  0  0  0  0  0  0  0  0  0  0  0
  1  2  1  0
  2  3  1  0
  3  4  1  0
  4  5  1  0
  4  6  1  0
  2  7  1  0
  7  8  1  0
  7  9  1  0
  7 10  1  0
 10 11  1  0
 11 12  2  0
 12 13  1  0
 13 14  2  0
 14 15  1  0
 14 16  1  0
 16 17  2  0
 17 11  1  0
  1 18  1  0
  1 19  1  0
  1 20  1  0
  2 21  1  0
  3 22  1  0
  3 23  1  0
  5 24  1  0
  5 25  1  0
  5 26  1  0
  6 27  1  0
  6 28  1  0
  6 29  1  0
  8 30  1  0
  8 31  1  0
  8 32  1  0
  9 33  1  0
 10 34  1  0
 10 35  1  0
 12 36  1  0
 13 37  1  0
 16 38  1  0
 17 39  1  0
M  END
> <ID>
HT3125

> <Class>
0.0

> <Clusters>
54

> <Fold>
4

$$$$