
     RDKit          3D

 54 59  0  0  0  0  0  0  0  0999 V2000
    5.6536   -0.6918   -3.8355 C   0  0  0  0  0  0  0  0  0  0  0  0
    4.4874   -1.0385   -2.9056 C   0  0  0  0  0  0  0  0  0  0  0  0
    4.6348   -0.4566   -1.4706 C   0  0  2  0  0  0  0  0  0  0  0  0
    4.8120    0.9448   -1.4940 O   0  0  0  0  0  0  0  0  0  0  0  0
    5.8506   -1.0557   -0.7922 C   0  0  0  0  0  0  0  0  0  0  0  0
    6.9834   -0.5224   -0.9348 O   0  0  0  0  0  0  0  0  0  0  0  0
    5.7317   -2.1840    0.0209 O   0  0  0  0  0  0  0  0  0  0  0  0
    4.5213   -2.9262    0.1075 C   0  0  0  0  0  0  0  0  0  0  0  0
    3.3331   -2.0000    0.1078 C   0  0  0  0  0  0  0  0  0  0  0  0
    3.3815   -0.8062   -0.6644 C   0  0  0  0  0  0  0  0  0  0  0  0
    2.2334    0.0130   -0.7277 C   0  0  0  0  0  0  0  0  0  0  0  0
    1.1078   -0.3641   -0.0036 C   0  0  0  0  0  0  0  0  0  0  0  0
    1.0838   -1.4935    0.7332 N   0  0  0  0  0  0  0  0  0  0  0  0
   -0.2252   -1.6625    1.3773 C   0  0  0  0  0  0  0  0  0  0  0  0
   -0.9780   -0.4472    0.9050 C   0  0  0  0  0  0  0  0  0  0  0  0
   -0.1668    0.2997    0.0896 C   0  0  0  0  0  0  0  0  0  0  0  0
   -0.5716    1.4541   -0.4887 N   0  0  0  0  0  0  0  0  0  0  0  0
   -1.8389    1.9075   -0.2648 C   0  0  0  0  0  0  0  0  0  0  0  0
   -2.2556    3.0969   -0.8581 C   0  0  0  0  0  0  0  0  0  0  0  0
   -3.5400    3.5884   -0.6315 C   0  0  0  0  0  0  0  0  0  0  0  0
   -3.9015    4.7545   -1.2256 F   0  0  0  0  0  0  0  0  0  0  0  0
   -4.4416    2.8923    0.1968 C   0  0  0  0  0  0  0  0  0  0  0  0
   -5.8201    3.4616    0.4291 C   0  0  0  0  0  0  0  0  0  0  0  0
   -4.0551    1.6504    0.7669 C   0  0  0  0  0  0  0  0  0  0  0  0
   -5.0149    0.8641    1.6425 C   0  0  0  0  0  0  0  0  0  0  0  0
   -4.6538   -0.6243    1.6967 C   0  0  0  0  0  0  0  0  0  0  0  0
   -3.1847   -0.8277    2.0932 C   0  0  2  0  0  0  0  0  0  0  0  0
   -2.9680   -0.4088    3.4796 N   0  0  0  0  0  0  0  0  0  0  0  0
   -2.2884   -0.0321    1.1709 C   0  0  0  0  0  0  0  0  0  0  0  0
   -2.7355    1.1748    0.5672 C   0  0  0  0  0  0  0  0  0  0  0  0
    2.1514   -2.3318    0.8069 C   0  0  0  0  0  0  0  0  0  0  0  0
    2.0762   -3.3926    1.4852 O   0  0  0  0  0  0  0  0  0  0  0  0
    5.4339   -1.0691   -4.8565 H   0  0  0  0  0  0  0  0  0  0  0  0
    6.5906   -1.1729   -3.4863 H   0  0  0  0  0  0  0  0  0  0  0  0
    5.8010    0.4068   -3.8936 H   0  0  0  0  0  0  0  0  0  0  0  0
    4.3924   -2.1455   -2.8567 H   0  0  0  0  0  0  0  0  0  0  0  0
    3.5516   -0.6517   -3.3664 H   0  0  0  0  0  0  0  0  0  0  0  0
    4.2399    1.3320   -2.2066 H   0  0  0  0  0  0  0  0  0  0  0  0
    4.4471   -3.6047   -0.7685 H   0  0  0  0  0  0  0  0  0  0  0  0
    4.5534   -3.5456    1.0282 H   0  0  0  0  0  0  0  0  0  0  0  0
    2.2035    0.9132   -1.3257 H   0  0  0  0  0  0  0  0  0  0  0  0
   -0.1173   -1.6580    2.4824 H   0  0  0  0  0  0  0  0  0  0  0  0
   -0.7167   -2.5925    1.0203 H   0  0  0  0  0  0  0  0  0  0  0  0
   -1.5769    3.6510   -1.4953 H   0  0  0  0  0  0  0  0  0  0  0  0
   -5.8813    4.5329    0.1454 H   0  0  0  0  0  0  0  0  0  0  0  0
   -6.5622    2.8961   -0.1723 H   0  0  0  0  0  0  0  0  0  0  0  0
   -6.0885    3.3971    1.5045 H   0  0  0  0  0  0  0  0  0  0  0  0
   -5.0000    1.2912    2.6683 H   0  0  0  0  0  0  0  0  0  0  0  0
   -6.0516    0.9385    1.2514 H   0  0  0  0  0  0  0  0  0  0  0  0
   -4.8285   -1.0784    0.6959 H   0  0  0  0  0  0  0  0  0  0  0  0
   -5.3203   -1.1431    2.4196 H   0  0  0  0  0  0  0  0  0  0  0  0
   -2.9558   -1.9132    1.9966 H   0  0  0  0  0  0  0  0  0  0  0  0
   -3.5447   -1.0203    4.1023 H   0  0  0  0  0  0  0  0  0  0  0  0
   -1.9719   -0.5999    3.7338 H   0  0  0  0  0  0  0  0  0  0  0  0
  1  2  1  0
  2  3  1  0
  3  4  1  6
  3  5  1  0
  5  6  2  0
  5  7  1  0
  7  8  1  0
  8  9  1  0
  9 10  2  0
 10  3  1  0
 10 11  1  0
 11 12  2  0
 12 13  1  0
 13 14  1  0
 14 15  1  0
 15 16  2  0
 16 12  1  0
 16 17  1  0
 17 18  2  0
 18 19  1  0
 19 20  2  0
 20 21  1  0
 20 22  1  0
 22 23  1  0
 22 24  2  0
 24 25  1  0
 25 26  1  0
 26 27  1  0
 27 28  1  0
 27 29  1  0
 29 15  1  0
 29 30  2  0
 30 18  1  0
 30 24  1  0
 13 31  1  0
 31  9  1  0
 31 32  2  0
  1 33  1  0
  1 34  1  0
  1 35  1  0
  2 36  1  0
  2 37  1  0
  4 38  1  0
  8 39  1  0
  8 40  1  0
 11 41  1  0
 14 42  1  0
 14 43  1  0
 19 44  1  0
 23 45  1  0
 23 46  1  0
 23 47  1  0
 25 48  1  0
 25 49  1  0
 26 50  1  0
 26 51  1  0
 27 52  1  1
 28 53  1  0
 28 54  1  0
M  END
> <ID>
HT2259

> <Class>
0.0

> <Clusters>
241

> <Fold>
4

$$$$