
     RDKit          3D

 15 15  0  0  0  0  0  0  0  0999 V2000
    2.2135   -0.1716    0.0892 C   0  0  0  0  0  0  0  0  0  0  0  0
    0.7198   -0.0474    0.0295 C   0  0  0  0  0  0  0  0  0  0  0  0
    0.0990    1.2121    0.0831 C   0  0  0  0  0  0  0  0  0  0  0  0
   -1.2950    1.3117    0.0264 C   0  0  0  0  0  0  0  0  0  0  0  0
   -2.0762    0.1579   -0.0839 C   0  0  0  0  0  0  0  0  0  0  0  0
   -1.4648   -1.0979   -0.1376 C   0  0  0  0  0  0  0  0  0  0  0  0
   -0.0713   -1.2018   -0.0812 C   0  0  0  0  0  0  0  0  0  0  0  0
    2.5019   -0.7833    0.9698 H   0  0  0  0  0  0  0  0  0  0  0  0
    2.7021    0.8223    0.1758 H   0  0  0  0  0  0  0  0  0  0  0  0
    2.5837   -0.6664   -0.8333 H   0  0  0  0  0  0  0  0  0  0  0  0
    0.6906    2.1151    0.1684 H   0  0  0  0  0  0  0  0  0  0  0  0
   -1.7697    2.2835    0.0679 H   0  0  0  0  0  0  0  0  0  0  0  0
   -3.1548    0.2368   -0.1276 H   0  0  0  0  0  0  0  0  0  0  0  0
   -2.0706   -1.9908   -0.2229 H   0  0  0  0  0  0  0  0  0  0  0  0
    0.3917   -2.1801   -0.1236 H   0  0  0  0  0  0  0  0  0  0  0  0
  1  2  1  0
  2  3  2  0
  3  4  1  0
  4  5  2  0
  5  6  1  0
  6  7  2  0
  7  2  1  0
  1  8  1  0
  1  9  1  0
  1 10  1  0
  3 11  1  0
  4 12  1  0
  5 13  1  0
  6 14  1  0
  7 15  1  0
M  END
> <ID>
HT2386

> <Class>
0.0

> <Clusters>
246

> <Fold>
4

$$$$