
     RDKit          3D

 39 41  0  0  0  0  0  0  0  0999 V2000
   -0.1557   -3.4216    0.5112 O   0  0  0  0  0  0  0  0  0  0  0  0
    1.0015   -2.6485    0.4173 C   0  0  0  0  0  0  0  0  0  0  0  0
    2.2498   -3.2749    0.5183 C   0  0  0  0  0  0  0  0  0  0  0  0
    3.4262   -2.5347    0.4289 C   0  0  0  0  0  0  0  0  0  0  0  0
    3.3754   -1.1496    0.2357 C   0  0  0  0  0  0  0  0  0  0  0  0
    4.5637   -0.4076    0.1461 C   0  0  0  0  0  0  0  0  0  0  0  0
    4.5213    0.9774   -0.0515 C   0  0  0  0  0  0  0  0  0  0  0  0
    3.2856    1.6264   -0.1466 C   0  0  0  0  0  0  0  0  0  0  0  0
    2.0960    0.8997   -0.0590 C   0  0  0  0  0  0  0  0  0  0  0  0
    2.1211   -0.4963    0.1317 C   0  0  0  0  0  0  0  0  0  0  0  0
    0.9251   -1.2481    0.2225 C   0  0  0  0  0  0  0  0  0  0  0  0
   -0.3372   -0.5653    0.1140 N   0  0  0  0  0  0  0  0  0  0  0  0
   -1.4622   -1.1553    0.1834 N   0  0  0  0  0  0  0  0  0  0  0  0
   -2.7015   -0.4461    0.0715 C   0  0  0  0  0  0  0  0  0  0  0  0
   -2.7405    0.9465   -0.1240 C   0  0  0  0  0  0  0  0  0  0  0  0
   -3.9680    1.6078   -0.2295 C   0  0  0  0  0  0  0  0  0  0  0  0
   -5.1672    0.8890   -0.1361 C   0  0  0  0  0  0  0  0  0  0  0  0
   -5.1288   -0.4992    0.0510 C   0  0  0  0  0  0  0  0  0  0  0  0
   -3.9020   -1.1613    0.1565 C   0  0  0  0  0  0  0  0  0  0  0  0
   -6.7126    1.7198   -0.2840 S   0  0  0  0  0  0  0  0  0  0  0  0
   -6.5842    3.1222    0.2410 O   0  0  0  0  0  0  0  0  0  0  0  0
   -7.7623    1.0024    0.5180 O   0  0  0  0  0  0  0  0  0  0  0  0
   -7.1739    1.7720   -1.8994 O   0  0  0  0  0  0  0  0  0  0  0  0
    6.0165    1.9018   -0.1489 S   0  0  0  0  0  0  0  0  0  0  0  0
    7.0918    1.0592   -0.7762 O   0  0  0  0  0  0  0  0  0  0  0  0
    5.8022    3.1265   -0.9941 O   0  0  0  0  0  0  0  0  0  0  0  0
    6.4848    2.3582    1.3995 O   0  0  0  0  0  0  0  0  0  0  0  0
   -0.1178   -4.4247    0.6506 H   0  0  0  0  0  0  0  0  0  0  0  0
    2.3093   -4.3457    0.6675 H   0  0  0  0  0  0  0  0  0  0  0  0
    4.3777   -3.0470    0.5107 H   0  0  0  0  0  0  0  0  0  0  0  0
    5.5226   -0.9057    0.2318 H   0  0  0  0  0  0  0  0  0  0  0  0
    3.2407    2.6990   -0.2868 H   0  0  0  0  0  0  0  0  0  0  0  0
    1.1602    1.4384   -0.1395 H   0  0  0  0  0  0  0  0  0  0  0  0
   -1.8262    1.5215   -0.1970 H   0  0  0  0  0  0  0  0  0  0  0  0
   -3.9819    2.6789   -0.3861 H   0  0  0  0  0  0  0  0  0  0  0  0
   -6.0469   -1.0695    0.1128 H   0  0  0  0  0  0  0  0  0  0  0  0
   -3.8851   -2.2342    0.3030 H   0  0  0  0  0  0  0  0  0  0  0  0
   -7.2437    0.8232   -2.1754 H   0  0  0  0  0  0  0  0  0  0  0  0
    7.3262    2.8654    1.2729 H   0  0  0  0  0  0  0  0  0  0  0  0
  1  2  1  0
  2  3  2  0
  3  4  1  0
  4  5  2  0
  5  6  1  0
  6  7  2  0
  7  8  1  0
  8  9  2  0
  9 10  1  0
 10  5  1  0
 10 11  2  0
 11  2  1  0
 11 12  1  0
 12 13  2  3
 13 14  1  0
 14 15  2  0
 15 16  1  0
 16 17  2  0
 17 18  1  0
 18 19  2  0
 19 14  1  0
 17 20  1  0
 20 21  2  0
 20 22  2  0
 20 23  1  0
  7 24  1  0
 24 25  2  0
 24 26  2  0
 24 27  1  0
  1 28  1  0
  3 29  1  0
  4 30  1  0
  6 31  1  0
  8 32  1  0
  9 33  1  0
 15 34  1  0
 16 35  1  0
 18 36  1  0
 19 37  1  0
 23 38  1  0
 27 39  1  0
M  END
> <ID>
HT3781

> <Class>
0.0

> <Clusters>
275

> <Fold>
4

$$$$