
     RDKit          3D

 44 47  0  0  0  0  0  0  0  0999 V2000
    4.5704   -1.7891    1.2979 N   0  0  0  0  0  0  0  0  0  0  0  0
    3.9491   -1.7680   -0.0257 C   0  0  0  0  0  0  0  0  0  0  0  0
    4.7288   -0.8763   -0.9935 C   0  0  0  0  0  0  0  0  0  0  0  0
    3.6789   -0.2295   -1.8879 C   0  0  0  0  0  0  0  0  0  0  0  0
    2.4168   -0.3635   -1.1760 N   0  0  0  0  0  0  0  0  0  0  0  0
    2.5452   -1.1699    0.0278 C   0  0  0  0  0  0  0  0  0  0  0  0
    1.1655    0.2428   -1.5627 C   0  0  0  0  0  0  0  0  0  0  0  0
    0.1110    0.1700   -0.7055 N   0  0  0  0  0  0  0  0  0  0  0  0
   -1.1129    0.7016   -0.9789 C   0  0  0  0  0  0  0  0  0  0  0  0
   -2.1336    0.5941   -0.0706 N   0  0  0  0  0  0  0  0  0  0  0  0
   -3.3586    1.1409   -0.3301 C   0  0  0  0  0  0  0  0  0  0  0  0
   -3.6106    1.8281   -1.5281 C   0  0  0  0  0  0  0  0  0  0  0  0
   -4.9570    2.4020   -1.7832 C   0  0  0  0  0  0  0  0  0  0  0  0
   -5.3916    2.4938   -2.9619 O   0  0  0  0  0  0  0  0  0  0  0  0
   -5.7640    2.8503   -0.7384 O   0  0  0  0  0  0  0  0  0  0  0  0
   -2.5737    1.9387   -2.4747 C   0  0  0  0  0  0  0  0  0  0  0  0
   -2.7669    2.5556   -3.5592 O   0  0  0  0  0  0  0  0  0  0  0  0
   -1.3160    1.3741   -2.2009 C   0  0  0  0  0  0  0  0  0  0  0  0
   -0.2471    1.4630   -3.1074 C   0  0  0  0  0  0  0  0  0  0  0  0
    0.9920    0.8993   -2.7973 C   0  0  0  0  0  0  0  0  0  0  0  0
    1.9922    0.9922   -3.7077 F   0  0  0  0  0  0  0  0  0  0  0  0
   -1.9393   -0.1095    1.1725 C   0  0  0  0  0  0  0  0  0  0  0  0
   -1.6080   -1.4754    1.1675 C   0  0  0  0  0  0  0  0  0  0  0  0
   -1.4114   -2.1582    2.3711 C   0  0  0  0  0  0  0  0  0  0  0  0
   -1.5480   -1.4853    3.5883 C   0  0  0  0  0  0  0  0  0  0  0  0
   -1.3566   -2.1491    4.7549 F   0  0  0  0  0  0  0  0  0  0  0  0
   -1.8813   -0.1277    3.6032 C   0  0  0  0  0  0  0  0  0  0  0  0
   -2.0776    0.5609    2.4015 C   0  0  0  0  0  0  0  0  0  0  0  0
   -2.3818    1.8829    2.4322 F   0  0  0  0  0  0  0  0  0  0  0  0
    5.5160   -2.2265    1.2039 H   0  0  0  0  0  0  0  0  0  0  0  0
    4.0114   -2.4304    1.9068 H   0  0  0  0  0  0  0  0  0  0  0  0
    3.8956   -2.8012   -0.4410 H   0  0  0  0  0  0  0  0  0  0  0  0
    5.4587   -1.4675   -1.5880 H   0  0  0  0  0  0  0  0  0  0  0  0
    5.2728   -0.0823   -0.4343 H   0  0  0  0  0  0  0  0  0  0  0  0
    3.6202   -0.7666   -2.8593 H   0  0  0  0  0  0  0  0  0  0  0  0
    3.9236    0.8427   -2.0499 H   0  0  0  0  0  0  0  0  0  0  0  0
    2.4132   -0.5196    0.9207 H   0  0  0  0  0  0  0  0  0  0  0  0
    1.7815   -1.9781    0.0375 H   0  0  0  0  0  0  0  0  0  0  0  0
   -4.1592    1.0106    0.3889 H   0  0  0  0  0  0  0  0  0  0  0  0
   -5.4372    2.8876    0.2189 H   0  0  0  0  0  0  0  0  0  0  0  0
   -0.3668    1.9670   -4.0588 H   0  0  0  0  0  0  0  0  0  0  0  0
   -1.5053   -2.0075    0.2300 H   0  0  0  0  0  0  0  0  0  0  0  0
   -1.1543   -3.2096    2.3589 H   0  0  0  0  0  0  0  0  0  0  0  0
   -1.9839    0.3926    4.5468 H   0  0  0  0  0  0  0  0  0  0  0  0
  1  2  1  0
  2  3  1  0
  3  4  1  0
  4  5  1  0
  5  6  1  0
  6  2  1  0
  5  7  1  0
  7  8  2  0
  8  9  1  0
  9 10  1  0
 10 11  1  0
 11 12  2  0
 12 13  1  0
 13 14  2  0
 13 15  1  0
 12 16  1  0
 16 17  2  0
 16 18  1  0
 18  9  2  0
 18 19  1  0
 19 20  2  0
 20  7  1  0
 20 21  1  0
 10 22  1  0
 22 23  2  0
 23 24  1  0
 24 25  2  0
 25 26  1  0
 25 27  1  0
 27 28  2  0
 28 22  1  0
 28 29  1  0
  1 30  1  0
  1 31  1  0
  2 32  1  0
  3 33  1  0
  3 34  1  0
  4 35  1  0
  4 36  1  0
  6 37  1  0
  6 38  1  0
 11 39  1  0
 15 40  1  0
 19 41  1  0
 23 42  1  0
 24 43  1  0
 27 44  1  0
M  END
> <ID>
HT2093

> <Class>
0.0

> <Clusters>
232

> <Fold>
4

$$$$