
     RDKit          3D

 71 75  0  0  0  0  0  0  0  0999 V2000
    1.2553    2.6477    1.7344 O   0  0  0  0  0  0  0  0  0  0  0  0
    0.9504    1.8567    0.8497 C   0  0  0  0  0  0  0  0  0  0  0  0
    2.0384    1.2970   -0.0257 C   0  0  0  0  0  0  0  0  0  0  0  0
   -0.5175    1.5658    0.5535 C   0  0  1  0  0  0  0  0  0  0  0  0
   -1.0179    2.4139   -0.6037 C   0  0  0  0  0  0  0  0  0  0  0  0
   -0.6992    0.0634    0.1849 C   0  0  2  0  0  0  0  0  0  0  0  0
   -1.2891    1.8289    1.7057 O   0  0  0  0  0  0  0  0  0  0  0  0
   -0.4275    3.4421   -0.9119 O   0  0  0  0  0  0  0  0  0  0  0  0
   -2.2887    2.0453   -1.3351 C   0  0  0  0  0  0  0  0  0  0  0  0
    0.3115   -0.4919   -0.8999 C   0  0  2  0  0  0  0  0  0  0  0  0
   -2.1853   -0.2652   -0.1743 C   0  0  0  0  0  0  0  0  0  0  0  0
   -3.0801    0.9465   -0.5859 C   0  0  2  0  0  0  0  0  0  0  0  0
   -2.0181    1.6697   -2.7734 C   0  0  0  0  0  0  0  0  0  0  0  0
    0.8698   -1.8202   -0.4903 N   0  0  0  0  0  0  0  0  0  0  0  0
    1.4315    0.5098   -1.1548 C   0  0  0  0  0  0  0  0  0  0  0  0
   -4.3320    0.4896   -1.4082 C   0  0  2  0  0  0  0  0  0  0  0  0
   -2.7433    0.5401   -3.4255 C   0  0  0  0  0  0  0  0  0  0  0  0
   -1.2855    2.4316   -3.4586 O   0  0  0  0  0  0  0  0  0  0  0  0
   -0.1707   -2.8630   -0.4523 C   0  0  0  0  0  0  0  0  0  0  0  0
    1.9484   -2.2814   -1.3929 C   0  0  0  0  0  0  0  0  0  0  0  0
    1.7958    0.7368   -2.3038 O   0  0  0  0  0  0  0  0  0  0  0  0
   -3.9191    0.0321   -2.8107 C   0  0  0  0  0  0  0  0  0  0  0  0
   -5.3476    1.6435   -1.5496 C   0  0  0  0  0  0  0  0  0  0  0  0
   -4.9966   -0.5418   -0.7051 O   0  0  0  0  0  0  0  0  0  0  0  0
   -2.3532    0.0290   -4.6974 C   0  0  0  0  0  0  0  0  0  0  0  0
   -4.7359   -0.8676   -3.5234 C   0  0  0  0  0  0  0  0  0  0  0  0
   -1.1370    0.3543   -5.3058 O   0  0  0  0  0  0  0  0  0  0  0  0
   -3.1925   -0.8536   -5.3833 C   0  0  0  0  0  0  0  0  0  0  0  0
   -4.3801   -1.2930   -4.8060 C   0  0  0  0  0  0  0  0  0  0  0  0
    3.0275    0.4582    0.7508 C   0  0  0  0  0  0  0  0  0  0  0  0
    4.2526    0.5357    0.4630 O   0  0  0  0  0  0  0  0  0  0  0  0
    2.5960   -0.4388    1.7873 N   0  0  0  0  0  0  0  0  0  0  0  0
    3.5336   -1.2246    2.5908 C   0  0  0  0  0  0  0  0  0  0  0  0
    4.3497   -0.3469    3.4539 N   0  0  0  0  0  0  0  0  0  0  0  0
    3.5308    0.5051    4.3326 C   0  0  0  0  0  0  0  0  0  0  0  0
    5.2052   -1.1346    4.3464 C   0  0  0  0  0  0  0  0  0  0  0  0
    4.3235    0.7347    5.6091 C   0  0  0  0  0  0  0  0  0  0  0  0
    5.4539   -0.2864    5.5821 C   0  0  0  0  0  0  0  0  0  0  0  0
    2.5873    2.1673   -0.4607 H   0  0  0  0  0  0  0  0  0  0  0  0
   -0.4847   -0.4884    1.1223 H   0  0  0  0  0  0  0  0  0  0  0  0
   -1.3005    2.8128    1.8562 H   0  0  0  0  0  0  0  0  0  0  0  0
   -2.9093    2.9672   -1.3467 H   0  0  0  0  0  0  0  0  0  0  0  0
   -0.2216   -0.6065   -1.8720 H   0  0  0  0  0  0  0  0  0  0  0  0
   -2.6645   -0.7444    0.7103 H   0  0  0  0  0  0  0  0  0  0  0  0
   -2.2152   -1.0323   -0.9730 H   0  0  0  0  0  0  0  0  0  0  0  0
   -3.4513    1.4002    0.3623 H   0  0  0  0  0  0  0  0  0  0  0  0
    0.2648   -3.8290   -0.0979 H   0  0  0  0  0  0  0  0  0  0  0  0
   -0.9576   -2.6068    0.2979 H   0  0  0  0  0  0  0  0  0  0  0  0
   -0.6360   -3.0053   -1.4534 H   0  0  0  0  0  0  0  0  0  0  0  0
    1.6316   -2.2289   -2.4581 H   0  0  0  0  0  0  0  0  0  0  0  0
    2.2484   -3.3256   -1.1575 H   0  0  0  0  0  0  0  0  0  0  0  0
    2.8570   -1.6640   -1.2567 H   0  0  0  0  0  0  0  0  0  0  0  0
   -4.9596    2.4729   -2.1799 H   0  0  0  0  0  0  0  0  0  0  0  0
   -6.2820    1.2673   -2.0208 H   0  0  0  0  0  0  0  0  0  0  0  0
   -5.6069    2.0444   -0.5435 H   0  0  0  0  0  0  0  0  0  0  0  0
   -4.5032   -1.3928   -0.8318 H   0  0  0  0  0  0  0  0  0  0  0  0
   -5.6548   -1.2418   -3.0921 H   0  0  0  0  0  0  0  0  0  0  0  0
   -0.3480    0.7519   -4.8113 H   0  0  0  0  0  0  0  0  0  0  0  0
   -2.9103   -1.2076   -6.3715 H   0  0  0  0  0  0  0  0  0  0  0  0
   -5.0222   -1.9844   -5.3410 H   0  0  0  0  0  0  0  0  0  0  0  0
    1.5799   -0.5362    1.9976 H   0  0  0  0  0  0  0  0  0  0  0  0
    4.2014   -1.8010    1.9106 H   0  0  0  0  0  0  0  0  0  0  0  0
    2.9573   -1.9628    3.1961 H   0  0  0  0  0  0  0  0  0  0  0  0
    3.3194    1.4768    3.8290 H   0  0  0  0  0  0  0  0  0  0  0  0
    2.5600    0.0119    4.5879 H   0  0  0  0  0  0  0  0  0  0  0  0
    6.1637   -1.3771    3.8359 H   0  0  0  0  0  0  0  0  0  0  0  0
    4.7102   -2.0853    4.6615 H   0  0  0  0  0  0  0  0  0  0  0  0
    4.7321    1.7708    5.6234 H   0  0  0  0  0  0  0  0  0  0  0  0
    3.6759    0.5902    6.5025 H   0  0  0  0  0  0  0  0  0  0  0  0
    5.4471   -0.9087    6.5047 H   0  0  0  0  0  0  0  0  0  0  0  0
    6.4347    0.2267    5.5029 H   0  0  0  0  0  0  0  0  0  0  0  0
  1  2  2  0
  2  3  1  0
  4  2  1  0
  5  4  1  0
  4  6  1  0
  4  7  1  1
  8  5  2  0
  5  9  1  0
 10  6  1  0
  6 11  1  0
 12  9  1  0
  9 13  1  0
 10 14  1  0
 15 10  1  0
 12 11  1  0
 16 12  1  0
 13 17  1  0
 13 18  2  0
 19 14  1  0
 14 20  1  0
  3 15  1  0
 15 21  2  0
 22 16  1  0
 16 23  1  0
 16 24  1  1
 22 17  2  0
 17 25  1  0
 26 22  1  0
 25 27  1  0
 25 28  2  0
 29 26  2  0
 28 29  1  0
  3 30  1  0
 30 31  2  0
 30 32  1  0
 32 33  1  0
 33 34  1  0
 34 35  1  0
 36 34  1  0
 35 37  1  0
 38 36  1  0
 37 38  1  0
  3 39  1  0
  6 40  1  1
  7 41  1  0
  9 42  1  0
 10 43  1  6
 11 44  1  0
 11 45  1  0
 12 46  1  1
 19 47  1  0
 19 48  1  0
 19 49  1  0
 20 50  1  0
 20 51  1  0
 20 52  1  0
 23 53  1  0
 23 54  1  0
 23 55  1  0
 24 56  1  0
 26 57  1  0
 27 58  1  0
 28 59  1  0
 29 60  1  0
 32 61  1  0
 33 62  1  0
 33 63  1  0
 35 64  1  0
 35 65  1  0
 36 66  1  0
 36 67  1  0
 37 68  1  0
 37 69  1  0
 38 70  1  0
 38 71  1  0
M  END
> <ID>
HT1841

> <Class>
0.0

> <Clusters>
225

> <Fold>
4

$$$$