
     RDKit          3D

 25 24  0  0  0  0  0  0  0  0999 V2000
   -1.8491   -2.0439    1.1682 C   0  0  0  0  0  0  0  0  0  0  0  0
   -0.5998   -1.5558    0.4249 C   0  0  0  0  0  0  0  0  0  0  0  0
   -0.8762   -0.5326   -0.7171 C   0  0  0  0  0  0  0  0  0  0  0  0
   -1.9549   -1.4521   -2.0794 Br  0  0  0  0  0  0  0  0  0  0  0  0
   -1.7096    0.7005   -0.2700 C   0  0  0  0  0  0  0  0  0  0  0  0
   -1.1008    1.5445    0.8531 C   0  0  0  0  0  0  0  0  0  0  0  0
    0.4356   -0.0870   -1.3626 C   0  0  0  0  0  0  0  0  0  0  0  0
    0.5480   -0.1224   -2.6189 O   0  0  0  0  0  0  0  0  0  0  0  0
    1.5433    0.3819   -0.5672 N   0  0  0  0  0  0  0  0  0  0  0  0
    2.7975    0.8183   -1.1159 C   0  0  0  0  0  0  0  0  0  0  0  0
    3.0016    0.7994   -2.3595 O   0  0  0  0  0  0  0  0  0  0  0  0
    3.8305    1.2801   -0.2461 N   0  0  0  0  0  0  0  0  0  0  0  0
   -1.5561   -2.8292    1.8966 H   0  0  0  0  0  0  0  0  0  0  0  0
   -2.5912   -2.4840    0.4717 H   0  0  0  0  0  0  0  0  0  0  0  0
   -2.3195   -1.2152    1.7364 H   0  0  0  0  0  0  0  0  0  0  0  0
    0.0875   -1.1372    1.1858 H   0  0  0  0  0  0  0  0  0  0  0  0
   -0.0874   -2.4422   -0.0091 H   0  0  0  0  0  0  0  0  0  0  0  0
   -1.8697    1.3645   -1.1479 H   0  0  0  0  0  0  0  0  0  0  0  0
   -2.7194    0.3689    0.0534 H   0  0  0  0  0  0  0  0  0  0  0  0
   -1.8405    2.3079    1.1742 H   0  0  0  0  0  0  0  0  0  0  0  0
   -0.8475    0.9244    1.7363 H   0  0  0  0  0  0  0  0  0  0  0  0
   -0.2016    2.0853    0.4950 H   0  0  0  0  0  0  0  0  0  0  0  0
    1.4497    0.4214    0.4701 H   0  0  0  0  0  0  0  0  0  0  0  0
    3.6844    1.3057    0.7873 H   0  0  0  0  0  0  0  0  0  0  0  0
    4.7453    1.5987   -0.6360 H   0  0  0  0  0  0  0  0  0  0  0  0
  1  2  1  0
  2  3  1  0
  3  4  1  0
  3  5  1  0
  5  6  1  0
  3  7  1  0
  7  8  2  0
  7  9  1  0
  9 10  1  0
 10 11  2  0
 10 12  1  0
  1 13  1  0
  1 14  1  0
  1 15  1  0
  2 16  1  0
  2 17  1  0
  5 18  1  0
  5 19  1  0
  6 20  1  0
  6 21  1  0
  6 22  1  0
  9 23  1  0
 12 24  1  0
 12 25  1  0
M  END
> <ID>
HT3036

> <Class>
0.0

> <Clusters>
256

> <Fold>
4

$$$$