
     RDKit          3D

 49 52  0  0  0  0  0  0  0  0999 V2000
   -0.6928    3.0732    0.7397 O   0  0  0  0  0  0  0  0  0  0  0  0
   -1.7075    2.1202    0.6052 C   0  0  0  0  0  0  0  0  0  0  0  0
   -1.3343    0.7698    0.4930 C   0  0  0  0  0  0  0  0  0  0  0  0
    0.0692    0.4714    0.4620 N   0  0  0  0  0  0  0  0  0  0  0  0
    0.5657   -0.3653   -0.3574 N   0  0  0  0  0  0  0  0  0  0  0  0
    1.9679   -0.6625   -0.3850 C   0  0  0  0  0  0  0  0  0  0  0  0
    2.3351   -2.0055   -0.4666 C   0  0  0  0  0  0  0  0  0  0  0  0
    3.6714   -2.3861   -0.4128 C   0  0  0  0  0  0  0  0  0  0  0  0
    4.6871   -1.4314   -0.2871 C   0  0  0  0  0  0  0  0  0  0  0  0
    4.3464   -0.0530   -0.2455 C   0  0  0  0  0  0  0  0  0  0  0  0
    5.3351    0.9510   -0.1470 C   0  0  0  0  0  0  0  0  0  0  0  0
    4.9864    2.3007   -0.1591 C   0  0  0  0  0  0  0  0  0  0  0  0
    3.6541    2.6787   -0.2845 C   0  0  0  0  0  0  0  0  0  0  0  0
    2.6555    1.7105   -0.3737 C   0  0  0  0  0  0  0  0  0  0  0  0
    2.9744    0.3363   -0.3204 C   0  0  0  0  0  0  0  0  0  0  0  0
    6.3641   -2.0035   -0.2061 S   0  0  0  0  0  0  0  0  0  0  0  0
    6.9778   -1.5743    1.0967 O   0  0  0  0  0  0  0  0  0  0  0  0
    7.1559   -1.4289   -1.3479 O   0  0  0  0  0  0  0  0  0  0  0  0
    6.4265   -3.6829   -0.2933 O   0  0  0  0  0  0  0  0  0  0  0  0
   -2.3323   -0.2368    0.4053 C   0  0  0  0  0  0  0  0  0  0  0  0
   -2.0217   -1.6135    0.4241 C   0  0  0  0  0  0  0  0  0  0  0  0
   -3.0297   -2.5740    0.3173 C   0  0  0  0  0  0  0  0  0  0  0  0
   -4.3687   -2.1875    0.2141 C   0  0  0  0  0  0  0  0  0  0  0  0
   -4.6989   -0.8288    0.2271 C   0  0  0  0  0  0  0  0  0  0  0  0
   -3.6954    0.1473    0.3400 C   0  0  0  0  0  0  0  0  0  0  0  0
   -4.0470    1.5002    0.4083 C   0  0  0  0  0  0  0  0  0  0  0  0
   -3.0694    2.4896    0.5619 C   0  0  0  0  0  0  0  0  0  0  0  0
   -3.5716    4.1813    0.6839 S   0  0  0  0  0  0  0  0  0  0  0  0
   -5.0711    4.2874    0.6535 O   0  0  0  0  0  0  0  0  0  0  0  0
   -3.0034    4.9541   -0.4734 O   0  0  0  0  0  0  0  0  0  0  0  0
   -3.0132    4.8226    2.1347 O   0  0  0  0  0  0  0  0  0  0  0  0
   -5.6328   -3.4046    0.0629 S   0  0  0  0  0  0  0  0  0  0  0  0
   -6.8885   -2.9129    0.7265 O   0  0  0  0  0  0  0  0  0  0  0  0
   -5.2053   -4.6803    0.7334 O   0  0  0  0  0  0  0  0  0  0  0  0
   -5.9422   -3.6984   -1.5628 O   0  0  0  0  0  0  0  0  0  0  0  0
   -0.8620    4.0668    0.8141 H   0  0  0  0  0  0  0  0  0  0  0  0
    1.5709   -2.7700   -0.5383 H   0  0  0  0  0  0  0  0  0  0  0  0
    3.9071   -3.4408   -0.4567 H   0  0  0  0  0  0  0  0  0  0  0  0
    6.3851    0.7126   -0.0680 H   0  0  0  0  0  0  0  0  0  0  0  0
    5.7566    3.0581   -0.0888 H   0  0  0  0  0  0  0  0  0  0  0  0
    3.3931    3.7287   -0.3213 H   0  0  0  0  0  0  0  0  0  0  0  0
    1.6429    2.0556   -0.5168 H   0  0  0  0  0  0  0  0  0  0  0  0
    6.2972   -3.8971   -1.2519 H   0  0  0  0  0  0  0  0  0  0  0  0
   -1.0105   -1.9692    0.5516 H   0  0  0  0  0  0  0  0  0  0  0  0
   -2.7630   -3.6233    0.3223 H   0  0  0  0  0  0  0  0  0  0  0  0
   -5.7394   -0.5332    0.1580 H   0  0  0  0  0  0  0  0  0  0  0  0
   -5.0923    1.7809    0.3624 H   0  0  0  0  0  0  0  0  0  0  0  0
   -3.2524    5.7832    2.0986 H   0  0  0  0  0  0  0  0  0  0  0  0
   -5.0800   -4.0162   -1.9329 H   0  0  0  0  0  0  0  0  0  0  0  0
  1  2  1  0
  2  3  2  0
  3  4  1  0
  4  5  2  3
  5  6  1  0
  6  7  2  0
  7  8  1  0
  8  9  2  0
  9 10  1  0
 10 11  2  0
 11 12  1  0
 12 13  2  0
 13 14  1  0
 14 15  2  0
 15  6  1  0
 15 10  1  0
  9 16  1  0
 16 17  2  0
 16 18  2  0
 16 19  1  0
  3 20  1  0
 20 21  2  0
 21 22  1  0
 22 23  2  0
 23 24  1  0
 24 25  2  0
 25 20  1  0
 25 26  1  0
 26 27  2  0
 27  2  1  0
 27 28  1  0
 28 29  2  0
 28 30  2  0
 28 31  1  0
 23 32  1  0
 32 33  2  0
 32 34  2  0
 32 35  1  0
  1 36  1  0
  7 37  1  0
  8 38  1  0
 11 39  1  0
 12 40  1  0
 13 41  1  0
 14 42  1  0
 19 43  1  0
 21 44  1  0
 22 45  1  0
 24 46  1  0
 26 47  1  0
 31 48  1  0
 35 49  1  0
M  END
> <ID>
HT3916

> <Class>
0.0

> <Clusters>
275

> <Fold>
4

$$$$