
     RDKit          3D

 61 63  0  0  0  0  0  0  0  0999 V2000
    0.0534    3.1985    1.8621 C   0  0  0  0  0  0  0  0  0  0  0  0
   -1.4354    2.9146    1.7035 C   0  0  0  0  0  0  0  0  0  0  0  0
   -1.6682    1.9714    0.6591 O   0  0  0  0  0  0  0  0  0  0  0  0
   -1.3787    0.6061    0.7704 C   0  0  0  0  0  0  0  0  0  0  0  0
   -0.9013    0.1355    1.8415 O   0  0  0  0  0  0  0  0  0  0  0  0
   -1.7224   -0.3135   -0.3725 C   0  0  2  0  0  0  0  0  0  0  0  0
   -3.0477   -1.0471   -0.0544 C   0  0  0  0  0  0  0  0  0  0  0  0
   -4.2558   -0.0967   -0.0648 C   0  0  0  0  0  0  0  0  0  0  0  0
   -5.5190   -0.8191    0.3233 C   0  0  0  0  0  0  0  0  0  0  0  0
   -6.5105   -1.0932   -0.6330 C   0  0  0  0  0  0  0  0  0  0  0  0
   -7.6927   -1.7372   -0.2560 C   0  0  0  0  0  0  0  0  0  0  0  0
   -7.8969   -2.1036    1.0771 C   0  0  0  0  0  0  0  0  0  0  0  0
   -6.9149   -1.8353    2.0346 C   0  0  0  0  0  0  0  0  0  0  0  0
   -5.7299   -1.1953    1.6612 C   0  0  0  0  0  0  0  0  0  0  0  0
   -0.6196   -1.2833   -0.5801 N   0  0  0  0  0  0  0  0  0  0  0  0
    0.4333   -0.8843   -1.5459 C   0  0  1  0  0  0  0  0  0  0  0  0
   -0.0974   -0.6972   -2.9789 C   0  0  0  0  0  0  0  0  0  0  0  0
    1.2123    0.3296   -1.0772 C   0  0  0  0  0  0  0  0  0  0  0  0
    0.6622    1.4628   -1.1218 O   0  0  0  0  0  0  0  0  0  0  0  0
    2.5655    0.2254   -0.5868 N   0  0  0  0  0  0  0  0  0  0  0  0
    3.3898   -0.9701   -0.6793 C   0  0  0  0  0  0  0  0  0  0  0  0
    4.7586   -0.5697   -0.1218 C   0  0  0  0  0  0  0  0  0  0  0  0
    4.4683    0.6418    0.7699 C   0  0  0  0  0  0  0  0  0  0  0  0
    3.2088    1.2826    0.1849 C   0  0  1  0  0  0  0  0  0  0  0  0
    3.5476    2.4749   -0.6770 C   0  0  0  0  0  0  0  0  0  0  0  0
    3.4104    2.4226   -1.9305 O   0  0  0  0  0  0  0  0  0  0  0  0
    4.0129    3.6483   -0.0913 O   0  0  0  0  0  0  0  0  0  0  0  0
    5.4919   -1.9410    0.8473 S   0  0  0  0  0  0  0  0  0  0  0  0
    7.1809   -1.4672    0.4077 C   0  0  0  0  0  0  0  0  0  0  0  0
    7.2094   -1.2010   -1.0786 C   0  0  0  0  0  0  0  0  0  0  0  0
    5.8649   -0.0583   -1.5013 S   0  0  0  0  0  0  0  0  0  0  0  0
    0.5884    2.2868    2.1935 H   0  0  0  0  0  0  0  0  0  0  0  0
    0.2012    3.9907    2.6266 H   0  0  0  0  0  0  0  0  0  0  0  0
    0.4787    3.5428    0.8975 H   0  0  0  0  0  0  0  0  0  0  0  0
   -1.9511    3.8619    1.4422 H   0  0  0  0  0  0  0  0  0  0  0  0
   -1.8617    2.5446    2.6610 H   0  0  0  0  0  0  0  0  0  0  0  0
   -1.8914    0.2965   -1.2832 H   0  0  0  0  0  0  0  0  0  0  0  0
   -2.9611   -1.5486    0.9350 H   0  0  0  0  0  0  0  0  0  0  0  0
   -3.2314   -1.8378   -0.8168 H   0  0  0  0  0  0  0  0  0  0  0  0
   -4.3591    0.3438   -1.0814 H   0  0  0  0  0  0  0  0  0  0  0  0
   -4.0960    0.7444    0.6437 H   0  0  0  0  0  0  0  0  0  0  0  0
   -6.3681   -0.8129   -1.6690 H   0  0  0  0  0  0  0  0  0  0  0  0
   -8.4510   -1.9502   -0.9975 H   0  0  0  0  0  0  0  0  0  0  0  0
   -8.8141   -2.5959    1.3682 H   0  0  0  0  0  0  0  0  0  0  0  0
   -7.0674   -2.1176    3.0688 H   0  0  0  0  0  0  0  0  0  0  0  0
   -4.9839   -0.9764    2.4176 H   0  0  0  0  0  0  0  0  0  0  0  0
   -1.0006   -2.2008   -0.9076 H   0  0  0  0  0  0  0  0  0  0  0  0
    1.1277   -1.7436   -1.6130 H   0  0  0  0  0  0  0  0  0  0  0  0
   -0.7802   -1.5275   -3.2534 H   0  0  0  0  0  0  0  0  0  0  0  0
    0.7537   -0.6991   -3.6936 H   0  0  0  0  0  0  0  0  0  0  0  0
   -0.6382    0.2626   -3.1046 H   0  0  0  0  0  0  0  0  0  0  0  0
    2.9289   -1.7744   -0.0662 H   0  0  0  0  0  0  0  0  0  0  0  0
    3.4654   -1.3089   -1.7338 H   0  0  0  0  0  0  0  0  0  0  0  0
    5.3309    1.3421    0.8264 H   0  0  0  0  0  0  0  0  0  0  0  0
    4.2380    0.3029    1.8041 H   0  0  0  0  0  0  0  0  0  0  0  0
    2.5375    1.6057    1.0048 H   0  0  0  0  0  0  0  0  0  0  0  0
    4.1241    3.7171    0.9128 H   0  0  0  0  0  0  0  0  0  0  0  0
    7.8806   -2.2906    0.6635 H   0  0  0  0  0  0  0  0  0  0  0  0
    7.4713   -0.5547    0.9708 H   0  0  0  0  0  0  0  0  0  0  0  0
    8.1839   -0.7539   -1.3708 H   0  0  0  0  0  0  0  0  0  0  0  0
    7.0652   -2.1500   -1.6369 H   0  0  0  0  0  0  0  0  0  0  0  0
  1  2  1  0
  2  3  1  0
  3  4  1  0
  4  5  2  0
  6  4  1  0
  6  7  1  0
  7  8  1  0
  8  9  1  0
  9 10  2  0
 10 11  1  0
 11 12  2  0
 12 13  1  0
 13 14  2  0
 14  9  1  0
  6 15  1  0
 15 16  1  0
 16 17  1  0
 16 18  1  0
 18 19  2  0
 18 20  1  0
 20 21  1  0
 21 22  1  0
 22 23  1  0
 23 24  1  0
 24 20  1  0
 24 25  1  0
 25 26  2  0
 25 27  1  0
 22 28  1  0
 28 29  1  0
 29 30  1  0
 30 31  1  0
 31 22  1  0
  1 32  1  0
  1 33  1  0
  1 34  1  0
  2 35  1  0
  2 36  1  0
  6 37  1  6
  7 38  1  0
  7 39  1  0
  8 40  1  0
  8 41  1  0
 10 42  1  0
 11 43  1  0
 12 44  1  0
 13 45  1  0
 14 46  1  0
 15 47  1  0
 16 48  1  6
 17 49  1  0
 17 50  1  0
 17 51  1  0
 21 52  1  0
 21 53  1  0
 23 54  1  0
 23 55  1  0
 24 56  1  1
 27 57  1  0
 29 58  1  0
 29 59  1  0
 30 60  1  0
 30 61  1  0
M  END
> <ID>
HT1912

> <Class>
0.0

> <Clusters>
94

> <Fold>
4

$$$$