
     RDKit          3D

 57 60  0  0  0  0  0  0  0  0999 V2000
   -0.7565    2.2222    1.4555 O   0  0  0  0  0  0  0  0  0  0  0  0
   -0.3264    1.5108    0.5563 C   0  0  0  0  0  0  0  0  0  0  0  0
    0.8884    0.6279    0.8092 C   0  0  0  0  0  0  0  0  0  0  0  0
   -1.0461    1.4420   -0.7708 C   0  0  2  0  0  0  0  0  0  0  0  0
   -2.4163    2.1060   -0.7088 C   0  0  0  0  0  0  0  0  0  0  0  0
   -1.2081   -0.0555   -1.1445 C   0  0  2  0  0  0  0  0  0  0  0  0
   -0.2529    2.1037   -1.7277 O   0  0  0  0  0  0  0  0  0  0  0  0
   -2.5558    3.2342   -1.1595 O   0  0  0  0  0  0  0  0  0  0  0  0
   -3.6298    1.3799   -0.1711 C   0  0  0  0  0  0  0  0  0  0  0  0
   -2.1368   -0.8210   -0.1488 C   0  0  1  0  0  0  0  0  0  0  0  0
    0.1792   -0.7759   -1.2718 C   0  0  1  0  0  0  0  0  0  0  0  0
   -3.2823    0.0176    0.3962 C   0  0  0  0  0  0  0  0  0  0  0  0
   -4.3185    2.2446    0.8618 C   0  0  0  0  0  0  0  0  0  0  0  0
   -2.5962   -2.0936   -0.7673 N   0  0  0  0  0  0  0  0  0  0  0  0
    0.5050   -0.8993   -2.6357 O   0  0  0  0  0  0  0  0  0  0  0  0
    1.3619   -0.0996   -0.4787 C   0  0  2  0  0  0  0  0  0  0  0  0
   -3.9462   -0.4322    1.3212 O   0  0  0  0  0  0  0  0  0  0  0  0
   -3.7387    2.5034    1.9559 O   0  0  0  0  0  0  0  0  0  0  0  0
   -5.5927    2.8271    0.5948 N   0  0  0  0  0  0  0  0  0  0  0  0
   -3.7882   -1.9671   -1.6207 C   0  0  0  0  0  0  0  0  0  0  0  0
   -2.7854   -3.1652    0.2276 C   0  0  0  0  0  0  0  0  0  0  0  0
    2.5568   -1.0852   -0.1729 C   0  0  2  0  0  0  0  0  0  0  0  0
    3.6377   -0.4157    0.7029 C   0  0  0  0  0  0  0  0  0  0  0  0
    3.1917   -1.5235   -1.5205 C   0  0  0  0  0  0  0  0  0  0  0  0
    2.0921   -2.2512    0.4731 O   0  0  0  0  0  0  0  0  0  0  0  0
    3.4157    0.8270    1.3528 C   0  0  0  0  0  0  0  0  0  0  0  0
    4.8671   -1.0788    0.9283 C   0  0  0  0  0  0  0  0  0  0  0  0
    2.0471    1.4086    1.3824 C   0  0  0  0  0  0  0  0  0  0  0  0
    4.4893    1.4536    2.0400 C   0  0  0  0  0  0  0  0  0  0  0  0
    5.9072   -0.4590    1.6170 C   0  0  0  0  0  0  0  0  0  0  0  0
    1.8368    2.4976    1.9770 O   0  0  0  0  0  0  0  0  0  0  0  0
    4.3253    2.7038    2.6346 O   0  0  0  0  0  0  0  0  0  0  0  0
    5.7325    0.8150    2.1399 C   0  0  0  0  0  0  0  0  0  0  0  0
    0.5862   -0.1248    1.5652 H   0  0  0  0  0  0  0  0  0  0  0  0
   -1.7045   -0.0859   -2.1393 H   0  0  0  0  0  0  0  0  0  0  0  0
   -0.7063    2.0311   -2.6083 H   0  0  0  0  0  0  0  0  0  0  0  0
   -4.3212    1.2235   -1.0279 H   0  0  0  0  0  0  0  0  0  0  0  0
   -1.5029   -1.0512    0.7376 H   0  0  0  0  0  0  0  0  0  0  0  0
    0.0694   -1.8122   -0.8906 H   0  0  0  0  0  0  0  0  0  0  0  0
    0.6422    0.0113   -3.0012 H   0  0  0  0  0  0  0  0  0  0  0  0
    1.7780    0.7007   -1.1332 H   0  0  0  0  0  0  0  0  0  0  0  0
   -6.0546    3.4249    1.3146 H   0  0  0  0  0  0  0  0  0  0  0  0
   -6.0932    2.6395   -0.2967 H   0  0  0  0  0  0  0  0  0  0  0  0
   -3.7114   -1.0847   -2.2827 H   0  0  0  0  0  0  0  0  0  0  0  0
   -4.7182   -1.8780   -1.0116 H   0  0  0  0  0  0  0  0  0  0  0  0
   -3.8705   -2.8608   -2.2689 H   0  0  0  0  0  0  0  0  0  0  0  0
   -3.5992   -2.9226    0.9401 H   0  0  0  0  0  0  0  0  0  0  0  0
   -1.8496   -3.3366    0.7951 H   0  0  0  0  0  0  0  0  0  0  0  0
   -3.0293   -4.1128   -0.2869 H   0  0  0  0  0  0  0  0  0  0  0  0
    4.0733   -2.1813   -1.3884 H   0  0  0  0  0  0  0  0  0  0  0  0
    2.4870   -2.1388   -2.1060 H   0  0  0  0  0  0  0  0  0  0  0  0
    3.5016   -0.6375   -2.1161 H   0  0  0  0  0  0  0  0  0  0  0  0
    1.8289   -2.0102    1.4025 H   0  0  0  0  0  0  0  0  0  0  0  0
    5.0420   -2.0847    0.5701 H   0  0  0  0  0  0  0  0  0  0  0  0
    6.8570   -0.9667    1.7343 H   0  0  0  0  0  0  0  0  0  0  0  0
    5.0835    3.1606    3.1322 H   0  0  0  0  0  0  0  0  0  0  0  0
    6.5550    1.2953    2.6590 H   0  0  0  0  0  0  0  0  0  0  0  0
  1  2  2  0
  2  3  1  0
  2  4  1  0
  4  5  1  0
  4  6  1  0
  4  7  1  6
  8  5  2  0
  5  9  1  0
 10  6  1  0
  6 11  1  0
  9 12  1  0
  9 13  1  0
 10 14  1  0
 12 10  1  0
 11 15  1  0
 11 16  1  0
 12 17  2  0
 13 18  2  0
 13 19  1  0
 20 14  1  0
 14 21  1  0
 16  3  1  0
 22 16  1  0
 23 22  1  0
 22 24  1  0
 22 25  1  1
 23 26  2  0
 27 23  1  0
 28 26  1  0
 26 29  1  0
 30 27  2  0
  3 28  1  0
 28 31  2  0
 29 32  1  0
 29 33  2  0
 33 30  1  0
  3 34  1  0
  6 35  1  6
  7 36  1  0
  9 37  1  0
 10 38  1  1
 11 39  1  1
 15 40  1  0
 16 41  1  6
 19 42  1  0
 19 43  1  0
 20 44  1  0
 20 45  1  0
 20 46  1  0
 21 47  1  0
 21 48  1  0
 21 49  1  0
 24 50  1  0
 24 51  1  0
 24 52  1  0
 25 53  1  0
 27 54  1  0
 30 55  1  0
 32 56  1  0
 33 57  1  0
M  END
> <ID>
HT1577

> <Class>
0.0

> <Clusters>
225

> <Fold>
4

$$$$