
     RDKit          3D

 73 77  0  0  0  0  0  0  0  0999 V2000
  -10.3578    0.0820   -3.0812 N   0  0  0  0  0  0  0  0  0  0  0  0
   -9.1224   -0.2726   -2.4521 C   0  0  0  0  0  0  0  0  0  0  0  0
   -8.4444   -1.2149   -2.9450 O   0  0  0  0  0  0  0  0  0  0  0  0
   -8.6341    0.4440   -1.2412 C   0  0  0  0  0  0  0  0  0  0  0  0
   -7.4320    0.1402   -0.7186 C   0  0  0  0  0  0  0  0  0  0  0  0
   -6.9330    0.8074    0.4556 N   0  0  0  0  0  0  0  0  0  0  0  0
   -7.7503    1.7724    1.1343 C   0  0  0  0  0  0  0  0  0  0  0  0
   -8.9443    2.1113    0.6553 C   0  0  0  0  0  0  0  0  0  0  0  0
   -9.4953    1.5246   -0.6161 C   0  0  0  0  0  0  0  0  0  0  0  0
   -5.6339    0.4341    1.0359 C   0  0  0  0  0  0  0  0  0  0  0  0
   -4.6996    0.1325    0.0208 O   0  0  0  0  0  0  0  0  0  0  0  0
   -4.0750   -1.0857    0.3618 C   0  0  0  0  0  0  0  0  0  0  0  0
   -2.5710   -0.9983    0.0826 C   0  0  0  0  0  0  0  0  0  0  0  0
   -2.3693   -0.7914   -1.2956 O   0  0  0  0  0  0  0  0  0  0  0  0
   -0.7036   -0.5406   -1.5596 P   0  0  0  0  0  0  0  0  0  0  0  0
   -0.4818   -0.3562   -3.0434 O   0  0  0  0  0  0  0  0  0  0  0  0
   -0.2251    0.8828   -0.7677 O   0  0  0  0  0  0  0  0  0  0  0  0
    0.1606   -1.9282   -1.0618 O   0  0  0  0  0  0  0  0  0  0  0  0
    1.2461   -1.4840    0.1701 P   0  0  0  0  0  0  0  0  0  0  0  0
    0.4759   -1.0060    1.3828 O   0  0  0  0  0  0  0  0  0  0  0  0
    2.1562   -2.8457    0.5973 O   0  0  0  0  0  0  0  0  0  0  0  0
    2.2967   -0.2622   -0.3958 O   0  0  0  0  0  0  0  0  0  0  0  0
    3.1448    0.1193    0.6613 C   0  0  0  0  0  0  0  0  0  0  0  0
    4.0753    1.2355    0.1801 C   0  0  0  0  0  0  0  0  0  0  0  0
    4.8704    0.7759   -0.8912 O   0  0  0  0  0  0  0  0  0  0  0  0
    6.1702    1.3091   -0.7270 C   0  0  0  0  0  0  0  0  0  0  0  0
    6.1927    2.2040    0.5163 C   0  0  0  0  0  0  0  0  0  0  0  0
    7.3767    2.0638    1.2596 O   0  0  0  0  0  0  0  0  0  0  0  0
    4.9964    1.7272    1.2908 C   0  0  0  0  0  0  0  0  0  0  0  0
    4.4176    2.7842    2.0100 O   0  0  0  0  0  0  0  0  0  0  0  0
    7.1441    0.2154   -0.6293 N   0  0  0  0  0  0  0  0  0  0  0  0
    6.9442   -1.0595   -0.1990 C   0  0  0  0  0  0  0  0  0  0  0  0
    8.0668   -1.8291   -0.2482 N   0  0  0  0  0  0  0  0  0  0  0  0
    8.9898   -0.9764   -0.7326 C   0  0  0  0  0  0  0  0  0  0  0  0
   10.3369   -1.1903   -1.0012 C   0  0  0  0  0  0  0  0  0  0  0  0
   10.9572   -2.4566   -0.7770 N   0  0  0  0  0  0  0  0  0  0  0  0
   11.0588   -0.1387   -1.4928 N   0  0  0  0  0  0  0  0  0  0  0  0
   10.4792    1.0857   -1.7143 C   0  0  0  0  0  0  0  0  0  0  0  0
    9.1531    1.2841   -1.4469 N   0  0  0  0  0  0  0  0  0  0  0  0
    8.4410    0.2385   -0.9608 C   0  0  0  0  0  0  0  0  0  0  0  0
   -4.4162   -1.4322    1.8157 C   0  0  0  0  0  0  0  0  0  0  0  0
   -3.4926   -0.8732    2.7183 O   0  0  0  0  0  0  0  0  0  0  0  0
   -5.7499   -0.7549    1.9913 C   0  0  0  0  0  0  0  0  0  0  0  0
   -6.7866   -1.6203    1.6005 O   0  0  0  0  0  0  0  0  0  0  0  0
  -10.9530    0.8671   -2.7389 H   0  0  0  0  0  0  0  0  0  0  0  0
  -10.6845   -0.4486   -3.9199 H   0  0  0  0  0  0  0  0  0  0  0  0
   -6.8242   -0.6304   -1.1772 H   0  0  0  0  0  0  0  0  0  0  0  0
   -7.4004    2.2342    2.0501 H   0  0  0  0  0  0  0  0  0  0  0  0
   -9.5349    2.8481    1.1850 H   0  0  0  0  0  0  0  0  0  0  0  0
   -9.6233    2.3508   -1.3480 H   0  0  0  0  0  0  0  0  0  0  0  0
  -10.4953    1.0992   -0.3857 H   0  0  0  0  0  0  0  0  0  0  0  0
   -5.2234    1.2994    1.6047 H   0  0  0  0  0  0  0  0  0  0  0  0
   -4.5012   -1.8809   -0.2910 H   0  0  0  0  0  0  0  0  0  0  0  0
   -2.0964   -1.9543    0.3993 H   0  0  0  0  0  0  0  0  0  0  0  0
   -2.1542   -0.1532    0.6762 H   0  0  0  0  0  0  0  0  0  0  0  0
   -0.8129    1.5886   -1.1353 H   0  0  0  0  0  0  0  0  0  0  0  0
    1.4862   -3.5552    0.7661 H   0  0  0  0  0  0  0  0  0  0  0  0
    2.5497    0.5110    1.5176 H   0  0  0  0  0  0  0  0  0  0  0  0
    3.7620   -0.7442    0.9990 H   0  0  0  0  0  0  0  0  0  0  0  0
    3.4529    2.0834   -0.1882 H   0  0  0  0  0  0  0  0  0  0  0  0
    6.4088    1.9222   -1.6241 H   0  0  0  0  0  0  0  0  0  0  0  0
    6.0556    3.2661    0.1993 H   0  0  0  0  0  0  0  0  0  0  0  0
    7.3735    2.7923    1.9329 H   0  0  0  0  0  0  0  0  0  0  0  0
    5.2964    0.8934    1.9712 H   0  0  0  0  0  0  0  0  0  0  0  0
    3.7922    2.3724    2.6613 H   0  0  0  0  0  0  0  0  0  0  0  0
    5.9912   -1.4326    0.1510 H   0  0  0  0  0  0  0  0  0  0  0  0
   11.9711   -2.5880   -0.9891 H   0  0  0  0  0  0  0  0  0  0  0  0
   10.4139   -3.2607   -0.3932 H   0  0  0  0  0  0  0  0  0  0  0  0
   11.0751    1.8995   -2.1047 H   0  0  0  0  0  0  0  0  0  0  0  0
   -4.4972   -2.5354    1.9644 H   0  0  0  0  0  0  0  0  0  0  0  0
   -2.7834   -1.5529    2.8619 H   0  0  0  0  0  0  0  0  0  0  0  0
   -5.9105   -0.4030    3.0381 H   0  0  0  0  0  0  0  0  0  0  0  0
   -6.9656   -2.2157    2.3753 H   0  0  0  0  0  0  0  0  0  0  0  0
  1  2  1  0
  2  3  2  0
  2  4  1  0
  4  5  2  0
  5  6  1  0
  6  7  1  0
  7  8  2  0
  8  9  1  0
  9  4  1  0
  6 10  1  0
 10 11  1  0
 11 12  1  0
 12 13  1  0
 13 14  1  0
 14 15  1  0
 15 16  2  0
 15 17  1  0
 15 18  1  0
 18 19  1  0
 19 20  2  0
 19 21  1  0
 19 22  1  0
 22 23  1  0
 23 24  1  0
 24 25  1  0
 25 26  1  0
 26 27  1  0
 27 28  1  0
 27 29  1  0
 29 24  1  0
 29 30  1  0
 26 31  1  0
 31 32  1  0
 32 33  2  0
 33 34  1  0
 34 35  2  0
 35 36  1  0
 35 37  1  0
 37 38  2  0
 38 39  1  0
 39 40  2  0
 40 31  1  0
 40 34  1  0
 12 41  1  0
 41 42  1  0
 41 43  1  0
 43 10  1  0
 43 44  1  0
  1 45  1  0
  1 46  1  0
  5 47  1  0
  7 48  1  0
  8 49  1  0
  9 50  1  0
  9 51  1  0
 10 52  1  0
 12 53  1  0
 13 54  1  0
 13 55  1  0
 17 56  1  0
 21 57  1  0
 23 58  1  0
 23 59  1  0
 24 60  1  0
 26 61  1  0
 27 62  1  0
 28 63  1  0
 29 64  1  0
 30 65  1  0
 32 66  1  0
 36 67  1  0
 36 68  1  0
 38 69  1  0
 41 70  1  0
 42 71  1  0
 43 72  1  0
 44 73  1  0
M  END
> <ID>
HT1449

> <Class>
0.0

> <Clusters>
7

> <Fold>
4

$$$$