
     RDKit          3D

 62 61  0  0  0  0  0  0  0  0999 V2000
   -8.9794    0.9577    1.1927 C   0  0  0  0  0  0  0  0  0  0  0  0
   -7.9597    0.0781    1.9150 C   0  0  0  0  0  0  0  0  0  0  0  0
   -7.6412   -1.2210    1.1545 C   0  0  0  0  0  0  0  0  0  0  0  0
   -7.0072   -1.0164   -0.2344 C   0  0  0  0  0  0  0  0  0  0  0  0
   -5.6532   -0.2924   -0.1766 C   0  0  0  0  0  0  0  0  0  0  0  0
   -4.9548   -0.3254   -1.5445 C   0  0  0  0  0  0  0  0  0  0  0  0
   -3.7171    0.5886   -1.6098 C   0  0  0  0  0  0  0  0  0  0  0  0
   -2.5784    0.1884   -0.6562 C   0  0  0  0  0  0  0  0  0  0  0  0
   -2.0747   -1.2088   -0.9227 C   0  0  0  0  0  0  0  0  0  0  0  0
   -1.1267   -1.5234   -1.8240 C   0  0  0  0  0  0  0  0  0  0  0  0
   -0.3709   -0.5226   -2.6643 C   0  0  0  0  0  0  0  0  0  0  0  0
    0.8838   -0.0035   -1.9479 C   0  0  0  0  0  0  0  0  0  0  0  0
    1.9284   -1.1129   -1.7340 C   0  0  0  0  0  0  0  0  0  0  0  0
    3.2881   -0.5655   -1.2710 C   0  0  0  0  0  0  0  0  0  0  0  0
    3.2362    0.0263    0.1491 C   0  0  0  0  0  0  0  0  0  0  0  0
    4.6346    0.3079    0.7223 C   0  0  0  0  0  0  0  0  0  0  0  0
    5.3364    1.4804    0.0192 C   0  0  0  0  0  0  0  0  0  0  0  0
    6.6754    1.7953    0.6219 C   0  0  0  0  0  0  0  0  0  0  0  0
    7.3630    2.7286    0.1255 O   0  0  0  0  0  0  0  0  0  0  0  0
    7.1555    1.0679    1.7194 O   0  0  0  0  0  0  0  0  0  0  0  0
    8.4536    1.2575    2.2804 C   0  0  0  0  0  0  0  0  0  0  0  0
    9.5260    0.6094    1.4023 C   0  0  0  0  0  0  0  0  0  0  0  0
    9.2790   -0.8239    1.2710 N   0  0  0  0  0  0  0  0  0  0  0  0
   -8.5322    1.4036    0.2793 H   0  0  0  0  0  0  0  0  0  0  0  0
   -9.8802    0.3675    0.9198 H   0  0  0  0  0  0  0  0  0  0  0  0
   -9.2892    1.7877    1.8624 H   0  0  0  0  0  0  0  0  0  0  0  0
   -8.3783   -0.1969    2.9073 H   0  0  0  0  0  0  0  0  0  0  0  0
   -7.0321    0.6576    2.1021 H   0  0  0  0  0  0  0  0  0  0  0  0
   -8.5784   -1.8076    1.0344 H   0  0  0  0  0  0  0  0  0  0  0  0
   -6.9544   -1.8350    1.7760 H   0  0  0  0  0  0  0  0  0  0  0  0
   -7.7044   -0.4614   -0.8970 H   0  0  0  0  0  0  0  0  0  0  0  0
   -6.8608   -2.0215   -0.6866 H   0  0  0  0  0  0  0  0  0  0  0  0
   -5.8124    0.7653    0.1230 H   0  0  0  0  0  0  0  0  0  0  0  0
   -5.0085   -0.7891    0.5804 H   0  0  0  0  0  0  0  0  0  0  0  0
   -4.6717   -1.3701   -1.7978 H   0  0  0  0  0  0  0  0  0  0  0  0
   -5.6706    0.0197   -2.3231 H   0  0  0  0  0  0  0  0  0  0  0  0
   -3.3381    0.5851   -2.6535 H   0  0  0  0  0  0  0  0  0  0  0  0
   -4.0231    1.6317   -1.3802 H   0  0  0  0  0  0  0  0  0  0  0  0
   -2.9294    0.2502    0.3944 H   0  0  0  0  0  0  0  0  0  0  0  0
   -1.7530    0.9247   -0.7429 H   0  0  0  0  0  0  0  0  0  0  0  0
   -2.5276   -2.0177   -0.3560 H   0  0  0  0  0  0  0  0  0  0  0  0
   -0.8625   -2.5707   -1.9401 H   0  0  0  0  0  0  0  0  0  0  0  0
   -0.0735   -1.0111   -3.6175 H   0  0  0  0  0  0  0  0  0  0  0  0
   -1.0200    0.3329   -2.9432 H   0  0  0  0  0  0  0  0  0  0  0  0
    0.5992    0.4409   -0.9708 H   0  0  0  0  0  0  0  0  0  0  0  0
    1.3275    0.8017   -2.5733 H   0  0  0  0  0  0  0  0  0  0  0  0
    1.5521   -1.8506   -0.9919 H   0  0  0  0  0  0  0  0  0  0  0  0
    2.0873   -1.6519   -2.6940 H   0  0  0  0  0  0  0  0  0  0  0  0
    3.6379    0.2029   -1.9929 H   0  0  0  0  0  0  0  0  0  0  0  0
    4.0169   -1.4055   -1.2893 H   0  0  0  0  0  0  0  0  0  0  0  0
    2.7300   -0.6975    0.8244 H   0  0  0  0  0  0  0  0  0  0  0  0
    2.6408    0.9643    0.1507 H   0  0  0  0  0  0  0  0  0  0  0  0
    5.2611   -0.6082    0.6489 H   0  0  0  0  0  0  0  0  0  0  0  0
    4.5190    0.5546    1.8008 H   0  0  0  0  0  0  0  0  0  0  0  0
    5.4950    1.2358   -1.0517 H   0  0  0  0  0  0  0  0  0  0  0  0
    4.6967    2.3870    0.0834 H   0  0  0  0  0  0  0  0  0  0  0  0
    8.6643    2.3419    2.4060 H   0  0  0  0  0  0  0  0  0  0  0  0
    8.4768    0.7913    3.2882 H   0  0  0  0  0  0  0  0  0  0  0  0
    9.5176    1.0797    0.3947 H   0  0  0  0  0  0  0  0  0  0  0  0
   10.5276    0.7811    1.8564 H   0  0  0  0  0  0  0  0  0  0  0  0
    9.9884   -1.2088    0.6060 H   0  0  0  0  0  0  0  0  0  0  0  0
    9.4656   -1.2738    2.1967 H   0  0  0  0  0  0  0  0  0  0  0  0
  1  2  1  0
  2  3  1  0
  3  4  1  0
  4  5  1  0
  5  6  1  0
  6  7  1  0
  7  8  1  0
  8  9  1  0
  9 10  2  3
 10 11  1  0
 11 12  1  0
 12 13  1  0
 13 14  1  0
 14 15  1  0
 15 16  1  0
 16 17  1  0
 17 18  1  0
 18 19  2  0
 18 20  1  0
 20 21  1  0
 21 22  1  0
 22 23  1  0
  1 24  1  0
  1 25  1  0
  1 26  1  0
  2 27  1  0
  2 28  1  0
  3 29  1  0
  3 30  1  0
  4 31  1  0
  4 32  1  0
  5 33  1  0
  5 34  1  0
  6 35  1  0
  6 36  1  0
  7 37  1  0
  7 38  1  0
  8 39  1  0
  8 40  1  0
  9 41  1  0
 10 42  1  0
 11 43  1  0
 11 44  1  0
 12 45  1  0
 12 46  1  0
 13 47  1  0
 13 48  1  0
 14 49  1  0
 14 50  1  0
 15 51  1  0
 15 52  1  0
 16 53  1  0
 16 54  1  0
 17 55  1  0
 17 56  1  0
 21 57  1  0
 21 58  1  0
 22 59  1  0
 22 60  1  0
 23 61  1  0
 23 62  1  0
M  END
> <ID>
HT3482

> <Class>
0.0

> <Clusters>
270

> <Fold>
4

$$$$