
     RDKit          3D

 13 13  0  0  0  0  0  0  0  0999 V2000
    2.2603   -0.8400   -0.5260 O   0  0  0  0  0  0  0  0  0  0  0  0
    0.9843   -0.3896   -0.2407 N   0  0  0  0  0  0  0  0  0  0  0  0
   -0.0565   -1.2008   -0.5866 C   0  0  0  0  0  0  0  0  0  0  0  0
   -1.3746   -0.8188   -0.3329 C   0  0  0  0  0  0  0  0  0  0  0  0
   -1.6247    0.4055    0.2807 C   0  0  0  0  0  0  0  0  0  0  0  0
   -0.5600    1.2324    0.6332 C   0  0  0  0  0  0  0  0  0  0  0  0
    0.7539    0.8233    0.3663 C   0  0  0  0  0  0  0  0  0  0  0  0
    1.9855    1.8221    0.7947 S   0  0  0  0  0  0  0  0  0  0  0  0
    3.0944   -0.3102   -0.3078 H   0  0  0  0  0  0  0  0  0  0  0  0
    0.1352   -2.1539   -1.0642 H   0  0  0  0  0  0  0  0  0  0  0  0
   -2.1948   -1.4681   -0.6104 H   0  0  0  0  0  0  0  0  0  0  0  0
   -2.6423    0.7137    0.4832 H   0  0  0  0  0  0  0  0  0  0  0  0
   -0.7607    2.1843    1.1106 H   0  0  0  0  0  0  0  0  0  0  0  0
  1  2  1  0
  2  3  1  0
  3  4  2  0
  4  5  1  0
  5  6  2  0
  6  7  1  0
  7  2  1  0
  7  8  2  0
  1  9  1  0
  3 10  1  0
  4 11  1  0
  5 12  1  0
  6 13  1  0
M  END
> <ID>
HT2528

> <Class>
0.0

> <Clusters>
246

> <Fold>
4

$$$$