
     RDKit          3D

 63 66  0  0  0  0  0  0  0  0999 V2000
   -4.1538   -2.5335   -3.3278 O   0  0  0  0  0  0  0  0  0  0  0  0
   -3.3862   -1.7544   -2.7024 C   0  0  0  0  0  0  0  0  0  0  0  0
   -2.1415   -2.1678   -2.3101 N   0  0  0  0  0  0  0  0  0  0  0  0
   -3.7668   -0.4526   -2.3914 C   0  0  0  0  0  0  0  0  0  0  0  0
   -4.9131    0.2203   -2.6191 N   0  0  0  0  0  0  0  0  0  0  0  0
   -2.9087    0.3563   -1.7294 C   0  0  0  0  0  0  0  0  0  0  0  0
   -4.7984    1.4433   -2.1045 N   0  0  0  0  0  0  0  0  0  0  0  0
   -6.1125   -0.2714   -3.2861 C   0  0  0  0  0  0  0  0  0  0  0  0
   -1.6827   -0.0476   -1.3287 N   0  0  0  0  0  0  0  0  0  0  0  0
   -3.5618    1.5548   -1.5568 C   0  0  0  0  0  0  0  0  0  0  0  0
   -1.2956   -1.3301   -1.6129 C   0  0  0  0  0  0  0  0  0  0  0  0
   -3.0580    2.7639   -0.8277 C   0  0  0  0  0  0  0  0  0  0  0  0
    0.0439   -1.7856   -1.1771 C   0  0  0  0  0  0  0  0  0  0  0  0
   -3.5121    2.7774    0.6377 C   0  0  0  0  0  0  0  0  0  0  0  0
    1.1307   -0.9049   -1.3024 C   0  0  0  0  0  0  0  0  0  0  0  0
    0.2371   -3.0529   -0.5831 C   0  0  0  0  0  0  0  0  0  0  0  0
   -2.8282    1.6941    1.4720 C   0  0  0  0  0  0  0  0  0  0  0  0
    2.4070   -1.2771   -0.8683 C   0  0  0  0  0  0  0  0  0  0  0  0
    1.5321   -3.4249   -0.1684 C   0  0  0  0  0  0  0  0  0  0  0  0
   -0.8733   -3.8975   -0.4014 O   0  0  0  0  0  0  0  0  0  0  0  0
    2.6034   -2.5404   -0.3048 C   0  0  0  0  0  0  0  0  0  0  0  0
    3.7483   -0.1400   -0.9845 S   0  0  0  0  0  0  0  0  0  0  0  0
   -0.8737   -5.1450    0.2929 C   0  0  0  0  0  0  0  0  0  0  0  0
    3.5250    0.7850   -2.1498 O   0  0  0  0  0  0  0  0  0  0  0  0
    5.0187   -0.9082   -1.2235 O   0  0  0  0  0  0  0  0  0  0  0  0
    3.8845    0.7743    0.4972 N   0  0  0  0  0  0  0  0  0  0  0  0
   -0.8353   -4.9236    1.8011 C   0  0  0  0  0  0  0  0  0  0  0  0
    2.6455    1.5385    0.7248 C   0  0  0  0  0  0  0  0  0  0  0  0
    5.0370    1.6859    0.4028 C   0  0  0  0  0  0  0  0  0  0  0  0
    2.7667    2.3678    2.0066 C   0  0  0  0  0  0  0  0  0  0  0  0
    5.1595    2.5116    1.6868 C   0  0  0  0  0  0  0  0  0  0  0  0
    3.9211    3.2803    1.9105 N   0  0  0  0  0  0  0  0  0  0  0  0
    4.0372    4.0779    3.1404 C   0  0  0  0  0  0  0  0  0  0  0  0
   -1.8285   -3.1302   -2.5706 H   0  0  0  0  0  0  0  0  0  0  0  0
   -6.8820    0.5284   -3.3287 H   0  0  0  0  0  0  0  0  0  0  0  0
   -5.8648   -0.5833   -4.3224 H   0  0  0  0  0  0  0  0  0  0  0  0
   -6.5257   -1.1359   -2.7254 H   0  0  0  0  0  0  0  0  0  0  0  0
   -1.9485    2.8088   -0.8862 H   0  0  0  0  0  0  0  0  0  0  0  0
   -3.4545    3.6703   -1.3335 H   0  0  0  0  0  0  0  0  0  0  0  0
   -4.6153    2.6510    0.6958 H   0  0  0  0  0  0  0  0  0  0  0  0
   -3.2614    3.7678    1.0756 H   0  0  0  0  0  0  0  0  0  0  0  0
    0.9814    0.0780   -1.7334 H   0  0  0  0  0  0  0  0  0  0  0  0
   -3.1176    1.8103    2.5379 H   0  0  0  0  0  0  0  0  0  0  0  0
   -3.1426    0.6847    1.1340 H   0  0  0  0  0  0  0  0  0  0  0  0
   -1.7232    1.7823    1.3934 H   0  0  0  0  0  0  0  0  0  0  0  0
    1.7242   -4.3892    0.2789 H   0  0  0  0  0  0  0  0  0  0  0  0
    3.5849   -2.8381    0.0418 H   0  0  0  0  0  0  0  0  0  0  0  0
   -1.8141   -5.6800    0.0434 H   0  0  0  0  0  0  0  0  0  0  0  0
   -0.0312   -5.7871   -0.0400 H   0  0  0  0  0  0  0  0  0  0  0  0
   -0.8902   -5.9018    2.3233 H   0  0  0  0  0  0  0  0  0  0  0  0
   -1.7007   -4.3011    2.1125 H   0  0  0  0  0  0  0  0  0  0  0  0
    0.1024   -4.4118    2.1003 H   0  0  0  0  0  0  0  0  0  0  0  0
    2.4293    2.2140   -0.1340 H   0  0  0  0  0  0  0  0  0  0  0  0
    1.7900    0.8412    0.8493 H   0  0  0  0  0  0  0  0  0  0  0  0
    5.9716    1.0976    0.2754 H   0  0  0  0  0  0  0  0  0  0  0  0
    4.9316    2.3729   -0.4678 H   0  0  0  0  0  0  0  0  0  0  0  0
    1.8304    2.9554    2.1323 H   0  0  0  0  0  0  0  0  0  0  0  0
    2.8711    1.6835    2.8802 H   0  0  0  0  0  0  0  0  0  0  0  0
    6.0204    3.2071    1.5743 H   0  0  0  0  0  0  0  0  0  0  0  0
    5.3675    1.8316    2.5450 H   0  0  0  0  0  0  0  0  0  0  0  0
    4.1969    3.4292    4.0309 H   0  0  0  0  0  0  0  0  0  0  0  0
    3.1161    4.6808    3.2927 H   0  0  0  0  0  0  0  0  0  0  0  0
    4.8864    4.7897    3.0548 H   0  0  0  0  0  0  0  0  0  0  0  0
  1  2  2  0
  2  3  1  0
  4  2  1  0
  5  4  1  0
  6  4  2  0
  7  5  1  0
  5  8  1  0
  9  6  1  0
  6 10  1  0
 10  7  2  0
 11  9  2  0
 12 10  1  0
  3 11  1  0
 11 13  1  0
 14 12  1  0
 13 15  2  0
 16 13  1  0
 17 14  1  0
 15 18  1  0
 19 16  2  0
 16 20  1  0
 18 21  2  0
 18 22  1  0
 21 19  1  0
 20 23  1  0
 22 24  2  0
 22 25  2  0
 22 26  1  0
 23 27  1  0
 26 28  1  0
 29 26  1  0
 28 30  1  0
 31 29  1  0
 30 32  1  0
 32 31  1  0
 32 33  1  0
  3 34  1  0
  8 35  1  0
  8 36  1  0
  8 37  1  0
 12 38  1  0
 12 39  1  0
 14 40  1  0
 14 41  1  0
 15 42  1  0
 17 43  1  0
 17 44  1  0
 17 45  1  0
 19 46  1  0
 21 47  1  0
 23 48  1  0
 23 49  1  0
 27 50  1  0
 27 51  1  0
 27 52  1  0
 28 53  1  0
 28 54  1  0
 29 55  1  0
 29 56  1  0
 30 57  1  0
 30 58  1  0
 31 59  1  0
 31 60  1  0
 33 61  1  0
 33 62  1  0
 33 63  1  0
M  END
> <ID>
HT1885

> <Class>
0.0

> <Clusters>
215

> <Fold>
4

$$$$