
     RDKit          3D

 49 51  0  0  0  0  0  0  0  0999 V2000
   -3.0298    0.4706   -2.0727 O   0  0  0  0  0  0  0  0  0  0  0  0
   -3.2479    0.0659   -0.7380 C   0  0  0  0  0  0  0  0  0  0  0  0
   -2.4238    0.9445    0.2447 C   0  0  0  0  0  0  0  0  0  0  0  0
   -0.9159    0.7888    0.0089 C   0  0  0  0  0  0  0  0  0  0  0  0
   -0.5081   -0.6231    0.1701 N   0  0  0  0  0  0  0  0  0  0  0  0
    0.9579   -0.7673    0.0279 C   0  0  0  0  0  0  0  0  0  0  0  0
    1.6539   -0.5123    1.3749 C   0  0  0  0  0  0  0  0  0  0  0  0
    3.1777   -0.7125    1.2912 C   0  0  0  0  0  0  0  0  0  0  0  0
    3.9095    0.3932    0.5610 C   0  0  0  0  0  0  0  0  0  0  0  0
    3.2697    1.4044    0.1587 O   0  0  0  0  0  0  0  0  0  0  0  0
    5.3769    0.3212    0.3190 C   0  0  0  0  0  0  0  0  0  0  0  0
    6.1564   -0.7383    0.8285 C   0  0  0  0  0  0  0  0  0  0  0  0
    7.5333   -0.7864    0.5891 C   0  0  0  0  0  0  0  0  0  0  0  0
    8.1517    0.2174   -0.1585 C   0  0  0  0  0  0  0  0  0  0  0  0
    9.4869    0.1674   -0.3885 F   0  0  0  0  0  0  0  0  0  0  0  0
    7.3939    1.2731   -0.6683 C   0  0  0  0  0  0  0  0  0  0  0  0
    6.0169    1.3273   -0.4325 C   0  0  0  0  0  0  0  0  0  0  0  0
   -1.2087   -1.4639   -0.8212 C   0  0  0  0  0  0  0  0  0  0  0  0
   -2.7264   -1.3877   -0.6083 C   0  0  0  0  0  0  0  0  0  0  0  0
   -4.7507    0.1974   -0.4225 C   0  0  0  0  0  0  0  0  0  0  0  0
   -5.3643    1.4678   -0.5023 C   0  0  0  0  0  0  0  0  0  0  0  0
   -6.7247    1.6307   -0.2279 C   0  0  0  0  0  0  0  0  0  0  0  0
   -7.5056    0.5307    0.1258 C   0  0  0  0  0  0  0  0  0  0  0  0
   -9.3650    0.7567    0.4991 Br  0  0  0  0  0  0  0  0  0  0  0  0
   -6.9258   -0.7357    0.2015 C   0  0  0  0  0  0  0  0  0  0  0  0
   -5.5653   -0.9067   -0.0715 C   0  0  0  0  0  0  0  0  0  0  0  0
   -3.1251    1.4566   -2.1289 H   0  0  0  0  0  0  0  0  0  0  0  0
   -2.6564    0.6522    1.2930 H   0  0  0  0  0  0  0  0  0  0  0  0
   -2.6837    2.0187    0.1340 H   0  0  0  0  0  0  0  0  0  0  0  0
   -0.3923    1.4278    0.7508 H   0  0  0  0  0  0  0  0  0  0  0  0
   -0.6543    1.1665   -1.0062 H   0  0  0  0  0  0  0  0  0  0  0  0
    1.3541   -0.0871   -0.7587 H   0  0  0  0  0  0  0  0  0  0  0  0
    1.2218   -1.8035   -0.2842 H   0  0  0  0  0  0  0  0  0  0  0  0
    1.4330    0.5074    1.7541 H   0  0  0  0  0  0  0  0  0  0  0  0
    1.2477   -1.2334    2.1175 H   0  0  0  0  0  0  0  0  0  0  0  0
    3.5760   -0.7641    2.3273 H   0  0  0  0  0  0  0  0  0  0  0  0
    3.3898   -1.6851    0.7965 H   0  0  0  0  0  0  0  0  0  0  0  0
    5.7129   -1.5308    1.4154 H   0  0  0  0  0  0  0  0  0  0  0  0
    8.1210   -1.6044    0.9858 H   0  0  0  0  0  0  0  0  0  0  0  0
    7.8727    2.0519   -1.2480 H   0  0  0  0  0  0  0  0  0  0  0  0
    5.4541    2.1569   -0.8416 H   0  0  0  0  0  0  0  0  0  0  0  0
   -0.9089   -2.5278   -0.6938 H   0  0  0  0  0  0  0  0  0  0  0  0
   -0.9474   -1.1567   -1.8597 H   0  0  0  0  0  0  0  0  0  0  0  0
   -2.9441   -1.7849    0.4083 H   0  0  0  0  0  0  0  0  0  0  0  0
   -3.2236   -2.0387   -1.3608 H   0  0  0  0  0  0  0  0  0  0  0  0
   -4.7939    2.3442   -0.7785 H   0  0  0  0  0  0  0  0  0  0  0  0
   -7.1710    2.6147   -0.2928 H   0  0  0  0  0  0  0  0  0  0  0  0
   -7.5305   -1.5927    0.4698 H   0  0  0  0  0  0  0  0  0  0  0  0
   -5.1745   -1.9109   -0.0079 H   0  0  0  0  0  0  0  0  0  0  0  0
  1  2  1  0
  2  3  1  0
  3  4  1  0
  4  5  1  0
  5  6  1  0
  6  7  1  0
  7  8  1  0
  8  9  1  0
  9 10  2  0
  9 11  1  0
 11 12  2  0
 12 13  1  0
 13 14  2  0
 14 15  1  0
 14 16  1  0
 16 17  2  0
 17 11  1  0
  5 18  1  0
 18 19  1  0
 19  2  1  0
  2 20  1  0
 20 21  2  0
 21 22  1  0
 22 23  2  0
 23 24  1  0
 23 25  1  0
 25 26  2  0
 26 20  1  0
  1 27  1  0
  3 28  1  0
  3 29  1  0
  4 30  1  0
  4 31  1  0
  6 32  1  0
  6 33  1  0
  7 34  1  0
  7 35  1  0
  8 36  1  0
  8 37  1  0
 12 38  1  0
 13 39  1  0
 16 40  1  0
 17 41  1  0
 18 42  1  0
 18 43  1  0
 19 44  1  0
 19 45  1  0
 21 46  1  0
 22 47  1  0
 25 48  1  0
 26 49  1  0
M  END
> <ID>
HT3799

> <Class>
0.0

> <Clusters>
124

> <Fold>
4

$$$$