
     RDKit          3D

 39 40  0  0  0  0  0  0  0  0999 V2000
   -0.4595    0.5761   -4.3386 N   0  0  0  0  0  0  0  0  0  0  0  0
   -1.2548   -0.5271   -3.9041 C   0  0  0  0  0  0  0  0  0  0  0  0
   -2.4981   -0.3813   -3.7614 O   0  0  0  0  0  0  0  0  0  0  0  0
   -0.6177   -1.8479   -3.5788 C   0  0  0  0  0  0  0  0  0  0  0  0
   -0.4376   -2.0290   -2.0661 C   0  0  0  0  0  0  0  0  0  0  0  0
    0.6678   -1.1314   -1.5018 C   0  0  0  0  0  0  0  0  0  0  0  0
    0.6881   -1.2327   -0.0410 N   0  0  0  0  0  0  0  0  0  0  0  0
    0.4086   -0.2911    0.8194 C   0  0  0  0  0  0  0  0  0  0  0  0
   -0.0565    1.0476    0.3817 C   0  0  0  0  0  0  0  0  0  0  0  0
   -1.2741    1.1928   -0.3036 C   0  0  0  0  0  0  0  0  0  0  0  0
   -1.7070    2.4586   -0.7085 C   0  0  0  0  0  0  0  0  0  0  0  0
   -0.9357    3.5891   -0.4190 C   0  0  0  0  0  0  0  0  0  0  0  0
   -1.4807    5.1769   -0.9270 Cl  0  0  0  0  0  0  0  0  0  0  0  0
    0.2680    3.4525    0.2807 C   0  0  0  0  0  0  0  0  0  0  0  0
    0.7050    2.1869    0.6838 C   0  0  0  0  0  0  0  0  0  0  0  0
    0.5537   -0.5735    2.2743 C   0  0  0  0  0  0  0  0  0  0  0  0
   -0.2742    0.0904    3.2022 C   0  0  0  0  0  0  0  0  0  0  0  0
   -0.1615   -0.1665    4.5708 C   0  0  0  0  0  0  0  0  0  0  0  0
   -0.9688    0.4775    5.4494 F   0  0  0  0  0  0  0  0  0  0  0  0
    0.7767   -1.0884    5.0346 C   0  0  0  0  0  0  0  0  0  0  0  0
    1.6070   -1.7538    4.1320 C   0  0  0  0  0  0  0  0  0  0  0  0
    1.5070   -1.5021    2.7554 C   0  0  0  0  0  0  0  0  0  0  0  0
    2.3649   -2.1611    1.8743 O   0  0  0  0  0  0  0  0  0  0  0  0
   -0.9049    1.4987   -4.5402 H   0  0  0  0  0  0  0  0  0  0  0  0
    0.5743    0.4793   -4.4473 H   0  0  0  0  0  0  0  0  0  0  0  0
    0.3622   -1.9426   -4.0950 H   0  0  0  0  0  0  0  0  0  0  0  0
   -1.2721   -2.6607   -3.9615 H   0  0  0  0  0  0  0  0  0  0  0  0
   -1.3995   -1.8225   -1.5482 H   0  0  0  0  0  0  0  0  0  0  0  0
   -0.1713   -3.0891   -1.8627 H   0  0  0  0  0  0  0  0  0  0  0  0
    0.5329   -0.0842   -1.8383 H   0  0  0  0  0  0  0  0  0  0  0  0
    1.6506   -1.4710   -1.8920 H   0  0  0  0  0  0  0  0  0  0  0  0
   -1.8877    0.3285   -0.5210 H   0  0  0  0  0  0  0  0  0  0  0  0
   -2.6427    2.5598   -1.2434 H   0  0  0  0  0  0  0  0  0  0  0  0
    0.8655    4.3251    0.5120 H   0  0  0  0  0  0  0  0  0  0  0  0
    1.6392    2.0930    1.2239 H   0  0  0  0  0  0  0  0  0  0  0  0
   -1.0216    0.7993    2.8685 H   0  0  0  0  0  0  0  0  0  0  0  0
    0.8625   -1.2876    6.0951 H   0  0  0  0  0  0  0  0  0  0  0  0
    2.3350   -2.4634    4.5042 H   0  0  0  0  0  0  0  0  0  0  0  0
    3.0570   -2.8252    2.2013 H   0  0  0  0  0  0  0  0  0  0  0  0
  1  2  1  0
  2  3  2  0
  2  4  1  0
  4  5  1  0
  5  6  1  0
  6  7  1  0
  7  8  2  3
  8  9  1  0
  9 10  2  0
 10 11  1  0
 11 12  2  0
 12 13  1  0
 12 14  1  0
 14 15  2  0
 15  9  1  0
  8 16  1  0
 16 17  2  0
 17 18  1  0
 18 19  1  0
 18 20  2  0
 20 21  1  0
 21 22  2  0
 22 16  1  0
 22 23  1  0
  1 24  1  0
  1 25  1  0
  4 26  1  0
  4 27  1  0
  5 28  1  0
  5 29  1  0
  6 30  1  0
  6 31  1  0
 10 32  1  0
 11 33  1  0
 14 34  1  0
 15 35  1  0
 17 36  1  0
 20 37  1  0
 21 38  1  0
 23 39  1  0
M  END
> <ID>
HT1750

> <Class>
0.0

> <Clusters>
124

> <Fold>
4

$$$$