
     RDKit          3D

 53 56  0  0  0  0  0  0  0  0999 V2000
    4.6943    0.1497   -1.6774 C   0  0  0  0  0  0  0  0  0  0  0  0
    4.1336   -0.7632   -0.6221 C   0  0  0  0  0  0  0  0  0  0  0  0
    4.4456   -1.9442   -0.6579 O   0  0  0  0  0  0  0  0  0  0  0  0
    3.2298   -0.2733    0.5169 C   0  0  0  0  0  0  0  0  0  0  0  0
    3.8396   -0.6154    1.7439 O   0  0  0  0  0  0  0  0  0  0  0  0
    2.9666    1.2531    0.5230 C   0  0  0  0  0  0  0  0  0  0  0  0
    1.5807    1.4568    1.1376 C   0  0  0  0  0  0  0  0  0  0  0  0
    0.9971    0.0559    1.3835 C   0  0  0  0  0  0  0  0  0  0  0  0
   -0.5483   -0.0606    1.2496 C   0  0  0  0  0  0  0  0  0  0  0  0
   -1.2417    0.9578    2.1783 C   0  0  0  0  0  0  0  0  0  0  0  0
   -2.7511    0.7706    2.1641 C   0  0  0  0  0  0  0  0  0  0  0  0
   -3.2330    0.9066    0.7462 C   0  0  0  0  0  0  0  0  0  0  0  0
   -4.0818    1.9034    0.4450 C   0  0  0  0  0  0  0  0  0  0  0  0
   -4.4896    2.1552   -0.9328 C   0  0  0  0  0  0  0  0  0  0  0  0
   -5.2824    3.0966   -1.1988 O   0  0  0  0  0  0  0  0  0  0  0  0
   -3.9720    1.3079   -1.9987 C   0  0  0  0  0  0  0  0  0  0  0  0
   -3.1352    0.3066   -1.7263 C   0  0  0  0  0  0  0  0  0  0  0  0
   -2.6486   -0.0489   -0.3144 C   0  0  0  0  0  0  0  0  0  0  0  0
   -3.1785   -1.4727   -0.0226 C   0  0  0  0  0  0  0  0  0  0  0  0
   -1.0611    0.0262   -0.2293 C   0  0  0  0  0  0  0  0  0  0  0  0
   -0.3050   -1.0479   -1.0733 C   0  0  0  0  0  0  0  0  0  0  0  0
   -0.6584   -0.9566   -2.4270 O   0  0  0  0  0  0  0  0  0  0  0  0
    1.2196   -0.8541   -0.9838 C   0  0  0  0  0  0  0  0  0  0  0  0
    1.7934   -0.8935    0.4663 C   0  0  0  0  0  0  0  0  0  0  0  0
    1.7658   -2.3482    1.0090 C   0  0  0  0  0  0  0  0  0  0  0  0
    3.8735    0.5601   -2.3008 H   0  0  0  0  0  0  0  0  0  0  0  0
    5.3875   -0.4054   -2.3451 H   0  0  0  0  0  0  0  0  0  0  0  0
    5.2587    0.9778   -1.2001 H   0  0  0  0  0  0  0  0  0  0  0  0
    4.7454   -0.2068    1.7620 H   0  0  0  0  0  0  0  0  0  0  0  0
    3.7402    1.8030    1.1024 H   0  0  0  0  0  0  0  0  0  0  0  0
    2.9506    1.6811   -0.5001 H   0  0  0  0  0  0  0  0  0  0  0  0
    0.9521    2.0497    0.4404 H   0  0  0  0  0  0  0  0  0  0  0  0
    1.6580    2.0162    2.0958 H   0  0  0  0  0  0  0  0  0  0  0  0
    1.2472   -0.2034    2.4396 H   0  0  0  0  0  0  0  0  0  0  0  0
   -0.8099   -1.0672    1.6403 H   0  0  0  0  0  0  0  0  0  0  0  0
   -1.0065    1.9979    1.8632 H   0  0  0  0  0  0  0  0  0  0  0  0
   -0.8779    0.8251    3.2207 H   0  0  0  0  0  0  0  0  0  0  0  0
   -3.2108    1.5270    2.8380 H   0  0  0  0  0  0  0  0  0  0  0  0
   -3.0193   -0.2287    2.5667 H   0  0  0  0  0  0  0  0  0  0  0  0
   -4.4557    2.5643    1.2184 H   0  0  0  0  0  0  0  0  0  0  0  0
   -4.2992    1.4728   -3.0182 H   0  0  0  0  0  0  0  0  0  0  0  0
   -2.8847   -0.3362   -2.5560 H   0  0  0  0  0  0  0  0  0  0  0  0
   -2.8937   -2.1813   -0.8292 H   0  0  0  0  0  0  0  0  0  0  0  0
   -4.2891   -1.4635    0.0330 H   0  0  0  0  0  0  0  0  0  0  0  0
   -2.7950   -1.8774    0.9343 H   0  0  0  0  0  0  0  0  0  0  0  0
   -0.7749    1.0238   -0.6298 H   0  0  0  0  0  0  0  0  0  0  0  0
   -0.5629   -2.0605   -0.6905 H   0  0  0  0  0  0  0  0  0  0  0  0
   -0.4519   -1.8345   -2.8432 H   0  0  0  0  0  0  0  0  0  0  0  0
    1.7116   -1.6413   -1.5966 H   0  0  0  0  0  0  0  0  0  0  0  0
    1.4615    0.1163   -1.4684 H   0  0  0  0  0  0  0  0  0  0  0  0
    2.1701   -2.4069    2.0412 H   0  0  0  0  0  0  0  0  0  0  0  0
    0.7329   -2.7471    1.0466 H   0  0  0  0  0  0  0  0  0  0  0  0
    2.3628   -3.0227    0.3619 H   0  0  0  0  0  0  0  0  0  0  0  0
  1  2  1  0
  2  3  2  0
  2  4  1  0
  4  5  1  0
  4  6  1  0
  6  7  1  0
  7  8  1  0
  8  9  1  0
  9 10  1  0
 10 11  1  0
 11 12  1  0
 12 13  2  0
 13 14  1  0
 14 15  2  0
 14 16  1  0
 16 17  2  0
 17 18  1  0
 18 12  1  0
 18 19  1  0
 18 20  1  0
 20  9  1  0
 20 21  1  0
 21 22  1  0
 21 23  1  0
 23 24  1  0
 24  4  1  0
 24  8  1  0
 24 25  1  0
  1 26  1  0
  1 27  1  0
  1 28  1  0
  5 29  1  0
  6 30  1  0
  6 31  1  0
  7 32  1  0
  7 33  1  0
  8 34  1  0
  9 35  1  0
 10 36  1  0
 10 37  1  0
 11 38  1  0
 11 39  1  0
 13 40  1  0
 16 41  1  0
 17 42  1  0
 19 43  1  0
 19 44  1  0
 19 45  1  0
 20 46  1  0
 21 47  1  0
 22 48  1  0
 23 49  1  0
 23 50  1  0
 25 51  1  0
 25 52  1  0
 25 53  1  0
M  END
> <ID>
HT3578

> <Class>
0.0

> <Clusters>
202

> <Fold>
4

$$$$