
     RDKit          3D

 29 31  0  0  0  0  0  0  0  0999 V2000
   -3.2667   -1.8549    0.3698 C   0  0  0  0  0  0  0  0  0  0  0  0
   -2.7184   -0.4678    0.1548 C   0  0  0  0  0  0  0  0  0  0  0  0
   -3.6050    0.6136    0.0714 C   0  0  0  0  0  0  0  0  0  0  0  0
   -3.1052    1.9018   -0.1259 C   0  0  0  0  0  0  0  0  0  0  0  0
   -3.8976    2.8771   -0.2001 O   0  0  0  0  0  0  0  0  0  0  0  0
   -1.7992    2.1096   -0.2368 O   0  0  0  0  0  0  0  0  0  0  0  0
   -0.9023    1.1294   -0.1689 C   0  0  0  0  0  0  0  0  0  0  0  0
    0.4740    1.4337   -0.2998 C   0  0  0  0  0  0  0  0  0  0  0  0
    0.9449    2.8482   -0.4865 C   0  0  0  0  0  0  0  0  0  0  0  0
    1.3824    0.3769   -0.2007 C   0  0  0  0  0  0  0  0  0  0  0  0
    2.6913    0.4312   -0.2741 O   0  0  0  0  0  0  0  0  0  0  0  0
    3.1480   -0.7989   -0.1287 C   0  0  0  0  0  0  0  0  0  0  0  0
    4.5946   -1.1591   -0.1653 C   0  0  0  0  0  0  0  0  0  0  0  0
    2.1016   -1.6979    0.0433 C   0  0  0  0  0  0  0  0  0  0  0  0
    0.9721   -0.9137   -0.0047 C   0  0  0  0  0  0  0  0  0  0  0  0
   -0.3697   -1.2566    0.1151 C   0  0  0  0  0  0  0  0  0  0  0  0
   -1.3324   -0.2207    0.0352 C   0  0  0  0  0  0  0  0  0  0  0  0
   -2.9769   -2.5094   -0.4790 H   0  0  0  0  0  0  0  0  0  0  0  0
   -4.3755   -1.8530    0.4381 H   0  0  0  0  0  0  0  0  0  0  0  0
   -2.8659   -2.2751    1.3161 H   0  0  0  0  0  0  0  0  0  0  0  0
   -4.6744    0.4610    0.1594 H   0  0  0  0  0  0  0  0  0  0  0  0
    0.8397    3.4018    0.4698 H   0  0  0  0  0  0  0  0  0  0  0  0
    0.3374    3.3518   -1.2678 H   0  0  0  0  0  0  0  0  0  0  0  0
    2.0082    2.8823   -0.8052 H   0  0  0  0  0  0  0  0  0  0  0  0
    5.2150   -0.2386   -0.1633 H   0  0  0  0  0  0  0  0  0  0  0  0
    4.8522   -1.7706    0.7246 H   0  0  0  0  0  0  0  0  0  0  0  0
    4.8095   -1.7405   -1.0860 H   0  0  0  0  0  0  0  0  0  0  0  0
    2.1616   -2.7694    0.1836 H   0  0  0  0  0  0  0  0  0  0  0  0
   -0.6432   -2.2920    0.2700 H   0  0  0  0  0  0  0  0  0  0  0  0
  1  2  1  0
  2  3  2  0
  3  4  1  0
  4  5  2  0
  4  6  1  0
  6  7  1  0
  7  8  2  0
  8  9  1  0
  8 10  1  0
 10 11  1  0
 11 12  1  0
 12 13  1  0
 12 14  2  0
 14 15  1  0
 15 10  2  0
 15 16  1  0
 16 17  2  0
 17  2  1  0
 17  7  1  0
  1 18  1  0
  1 19  1  0
  1 20  1  0
  3 21  1  0
  9 22  1  0
  9 23  1  0
  9 24  1  0
 13 25  1  0
 13 26  1  0
 13 27  1  0
 14 28  1  0
 16 29  1  0
M  END
> <ID>
HT2131

> <Class>
0.0

> <Clusters>
255

> <Fold>
4

$$$$