
     RDKit          3D

 20 20  0  0  0  0  0  0  0  0999 V2000
    2.6000    0.4209    0.5282 O   0  0  0  0  0  0  0  0  0  0  0  0
    1.3689    0.3122   -0.1369 C   0  0  2  0  0  0  0  0  0  0  0  0
    0.5510    1.5955    0.0912 C   0  0  0  0  0  0  0  0  0  0  0  0
   -0.7099    1.6207   -0.5712 O   0  0  0  0  0  0  0  0  0  0  0  0
   -1.2649    0.3342   -0.8352 C   0  0  0  0  0  0  0  0  0  0  0  0
   -2.6528    0.4482   -1.0096 O   0  0  0  0  0  0  0  0  0  0  0  0
   -0.9538   -0.7140    0.2576 C   0  0  2  0  0  0  0  0  0  0  0  0
   -1.4927   -0.2812    1.4817 O   0  0  0  0  0  0  0  0  0  0  0  0
    0.5807   -0.9122    0.3879 C   0  0  1  0  0  0  0  0  0  0  0  0
    0.9951   -2.0808   -0.2759 O   0  0  0  0  0  0  0  0  0  0  0  0
    3.1807   -0.3006    0.1705 H   0  0  0  0  0  0  0  0  0  0  0  0
    1.5478    0.2196   -1.2341 H   0  0  0  0  0  0  0  0  0  0  0  0
    1.1457    2.4616   -0.2691 H   0  0  0  0  0  0  0  0  0  0  0  0
    0.3882    1.7462    1.1808 H   0  0  0  0  0  0  0  0  0  0  0  0
   -0.8497   -0.0314   -1.8001 H   0  0  0  0  0  0  0  0  0  0  0  0
   -3.0049    0.9594   -0.2347 H   0  0  0  0  0  0  0  0  0  0  0  0
   -1.4358   -1.6769   -0.0359 H   0  0  0  0  0  0  0  0  0  0  0  0
   -1.5491   -1.0801    2.0687 H   0  0  0  0  0  0  0  0  0  0  0  0
    0.8235   -1.0472    1.4656 H   0  0  0  0  0  0  0  0  0  0  0  0
    0.7319   -1.9943   -1.2296 H   0  0  0  0  0  0  0  0  0  0  0  0
  2  1  1  0
  2  3  1  0
  3  4  1  0
  4  5  1  0
  5  6  1  0
  5  7  1  0
  7  8  1  0
  7  9  1  0
  9  2  1  0
  9 10  1  0
  1 11  1  0
  2 12  1  6
  3 13  1  0
  3 14  1  0
  5 15  1  0
  6 16  1  0
  7 17  1  6
  8 18  1  0
  9 19  1  1
 10 20  1  0
M  END
> <ID>
HT2204

> <Class>
0.0

> <Clusters>
70

> <Fold>
4

$$$$