
     RDKit          3D

 24 24  0  0  0  0  0  0  0  0999 V2000
   -3.1350    0.2986   -0.1421 C   0  0  0  0  0  0  0  0  0  0  0  0
   -1.7024   -0.2307    0.0320 C   0  0  2  0  0  0  0  0  0  0  0  0
   -1.4245   -0.4998    1.4461 N   0  0  0  0  0  0  0  0  0  0  0  0
   -0.6625    0.7720   -0.5330 C   0  0  2  0  0  0  0  0  0  0  0  0
   -0.8923    1.0470   -1.8939 O   0  0  0  0  0  0  0  0  0  0  0  0
    0.7625    0.2878   -0.3309 C   0  0  0  0  0  0  0  0  0  0  0  0
    1.6503    1.0237    0.4754 C   0  0  0  0  0  0  0  0  0  0  0  0
    2.9629    0.5823    0.6689 C   0  0  0  0  0  0  0  0  0  0  0  0
    3.4031   -0.5956    0.0611 C   0  0  0  0  0  0  0  0  0  0  0  0
    2.5315   -1.3350   -0.7415 C   0  0  0  0  0  0  0  0  0  0  0  0
    1.2179   -0.8983   -0.9385 C   0  0  0  0  0  0  0  0  0  0  0  0
   -3.3691    0.4351   -1.2191 H   0  0  0  0  0  0  0  0  0  0  0  0
   -3.2601    1.2714    0.3797 H   0  0  0  0  0  0  0  0  0  0  0  0
   -3.8629   -0.4279    0.2775 H   0  0  0  0  0  0  0  0  0  0  0  0
   -1.6258   -1.1891   -0.5279 H   0  0  0  0  0  0  0  0  0  0  0  0
   -1.6088    0.3642    2.0071 H   0  0  0  0  0  0  0  0  0  0  0  0
   -2.0814   -1.2403    1.7843 H   0  0  0  0  0  0  0  0  0  0  0  0
   -0.7979    1.7309    0.0150 H   0  0  0  0  0  0  0  0  0  0  0  0
   -0.9255    0.1833   -2.3816 H   0  0  0  0  0  0  0  0  0  0  0  0
    1.3284    1.9385    0.9572 H   0  0  0  0  0  0  0  0  0  0  0  0
    3.6391    1.1541    1.2913 H   0  0  0  0  0  0  0  0  0  0  0  0
    4.4194   -0.9356    0.2125 H   0  0  0  0  0  0  0  0  0  0  0  0
    2.8736   -2.2481   -1.2113 H   0  0  0  0  0  0  0  0  0  0  0  0
    0.5595   -1.4884   -1.5624 H   0  0  0  0  0  0  0  0  0  0  0  0
  1  2  1  0
  2  3  1  0
  2  4  1  0
  4  5  1  0
  4  6  1  0
  6  7  2  0
  7  8  1  0
  8  9  2  0
  9 10  1  0
 10 11  2  0
 11  6  1  0
  1 12  1  0
  1 13  1  0
  1 14  1  0
  2 15  1  6
  3 16  1  0
  3 17  1  0
  4 18  1  1
  5 19  1  0
  7 20  1  0
  8 21  1  0
  9 22  1  0
 10 23  1  0
 11 24  1  0
M  END
> <ID>
HT1662

> <Class>
0.0

> <Clusters>
246

> <Fold>
4

$$$$