
     RDKit          3D

 28 29  0  0  0  0  0  0  0  0999 V2000
   -4.0493   -1.4331    1.3256 O   0  0  0  0  0  0  0  0  0  0  0  0
   -2.6818   -1.4168    1.0155 C   0  0  0  0  0  0  0  0  0  0  0  0
   -2.2625   -0.0245    0.5096 C   0  0  0  0  0  0  0  0  0  0  0  0
   -2.9914    0.3170   -0.6441 O   0  0  0  0  0  0  0  0  0  0  0  0
   -0.7410    0.0396    0.2345 C   0  0  0  0  0  0  0  0  0  0  0  0
   -0.0122   -0.1561    1.4240 O   0  0  0  0  0  0  0  0  0  0  0  0
    1.2273    0.5013    1.2625 C   0  0  0  0  0  0  0  0  0  0  0  0
    2.2234   -0.4344    0.9805 O   0  0  0  0  0  0  0  0  0  0  0  0
    2.8813    0.0602   -0.1619 C   0  0  0  0  0  0  0  0  0  0  0  0
    2.0352    0.9322   -0.8717 O   0  0  0  0  0  0  0  0  0  0  0  0
    1.1643    1.4422    0.0911 C   0  0  0  0  0  0  0  0  0  0  0  0
   -0.2710    1.3602   -0.3776 C   0  0  0  0  0  0  0  0  0  0  0  0
   -1.0143    2.4657    0.0834 O   0  0  0  0  0  0  0  0  0  0  0  0
    3.3235   -1.1001   -1.0636 C   0  0  0  0  0  0  0  0  0  0  0  0
    4.4256   -2.1834   -0.1732 Cl  0  0  0  0  0  0  0  0  0  0  0  0
    4.1902   -0.4722   -2.4902 Cl  0  0  0  0  0  0  0  0  0  0  0  0
    1.9189   -2.0484   -1.6215 Cl  0  0  0  0  0  0  0  0  0  0  0  0
   -4.5352   -1.5656    0.4701 H   0  0  0  0  0  0  0  0  0  0  0  0
   -2.4434   -2.1986    0.2576 H   0  0  0  0  0  0  0  0  0  0  0  0
   -2.1157   -1.6620    1.9390 H   0  0  0  0  0  0  0  0  0  0  0  0
   -2.5144    0.7094    1.3057 H   0  0  0  0  0  0  0  0  0  0  0  0
   -2.7567   -0.3397   -1.3515 H   0  0  0  0  0  0  0  0  0  0  0  0
   -0.4810   -0.7823   -0.4710 H   0  0  0  0  0  0  0  0  0  0  0  0
    1.4803    1.0485    2.1964 H   0  0  0  0  0  0  0  0  0  0  0  0
    3.7872    0.6227    0.1616 H   0  0  0  0  0  0  0  0  0  0  0  0
    1.4661    2.4789    0.3634 H   0  0  0  0  0  0  0  0  0  0  0  0
   -0.3356    1.3249   -1.4876 H   0  0  0  0  0  0  0  0  0  0  0  0
   -0.9177    2.5145    1.0712 H   0  0  0  0  0  0  0  0  0  0  0  0
  1  2  1  0
  2  3  1  0
  3  4  1  0
  3  5  1  0
  5  6  1  0
  6  7  1  0
  7  8  1  0
  8  9  1  0
  9 10  1  0
 10 11  1  0
 11  7  1  0
 11 12  1  0
 12  5  1  0
 12 13  1  0
  9 14  1  0
 14 15  1  0
 14 16  1  0
 14 17  1  0
  1 18  1  0
  2 19  1  0
  2 20  1  0
  3 21  1  0
  4 22  1  0
  5 23  1  0
  7 24  1  0
  9 25  1  0
 11 26  1  0
 12 27  1  0
 13 28  1  0
M  END
> <ID>
HT3404

> <Class>
0.0

> <Clusters>
70

> <Fold>
4

$$$$