
     RDKit          3D

 56 57  0  0  0  0  0  0  0  0999 V2000
    1.4779   -2.4593    0.2415 O   0  0  0  0  0  0  0  0  0  0  0  0
    1.9156   -1.3326   -0.1239 C   0  0  0  0  0  0  0  0  0  0  0  0
    1.0752   -0.4410   -0.9983 C   0  0  0  0  0  0  0  0  0  0  0  0
    3.1961   -0.9147    0.2488 O   0  0  0  0  0  0  0  0  0  0  0  0
    4.0725   -1.7251    1.0251 C   0  0  0  0  0  0  0  0  0  0  0  0
    5.4004   -1.0063    1.2216 C   0  0  0  0  0  0  0  0  0  0  0  0
    5.9931   -0.7693   -0.0374 O   0  0  0  0  0  0  0  0  0  0  0  0
    7.2305   -0.1183    0.1434 C   0  0  0  0  0  0  0  0  0  0  0  0
   -0.3315   -0.2011   -0.3804 C   0  0  0  0  0  0  0  0  0  0  0  0
    0.9891   -1.0563   -2.3699 C   0  0  0  0  0  0  0  0  0  0  0  0
   -1.3422   -1.2880   -0.7255 C   0  0  0  0  0  0  0  0  0  0  0  0
   -0.8896    1.1630   -0.7601 C   0  0  0  0  0  0  0  0  0  0  0  0
   -0.0201   -1.8058   -2.6929 N   0  0  0  0  0  0  0  0  0  0  0  0
    2.1100   -0.8909   -3.3486 C   0  0  0  0  0  0  0  0  0  0  0  0
   -1.1564   -2.0388   -1.8456 C   0  0  0  0  0  0  0  0  0  0  0  0
   -2.5460   -1.3822    0.1547 C   0  0  0  0  0  0  0  0  0  0  0  0
   -1.1892    1.4806   -2.0971 C   0  0  0  0  0  0  0  0  0  0  0  0
   -1.1502    2.1184    0.2406 C   0  0  0  0  0  0  0  0  0  0  0  0
   -2.1230   -3.0941   -2.3025 C   0  0  0  0  0  0  0  0  0  0  0  0
   -3.4729   -2.2053   -0.0737 O   0  0  0  0  0  0  0  0  0  0  0  0
   -2.6469   -0.5171    1.2518 O   0  0  0  0  0  0  0  0  0  0  0  0
   -1.7326    2.7235   -2.4239 C   0  0  0  0  0  0  0  0  0  0  0  0
   -1.7066    3.3702   -0.0812 C   0  0  0  0  0  0  0  0  0  0  0  0
   -3.8402   -0.3294    2.0103 C   0  0  0  0  0  0  0  0  0  0  0  0
   -1.9915    3.6632   -1.4251 C   0  0  0  0  0  0  0  0  0  0  0  0
   -1.9875    4.3361    0.9489 N   0  0  0  0  0  0  0  0  0  0  0  0
   -3.4841    0.3684    3.3214 C   0  0  0  0  0  0  0  0  0  0  0  0
   -4.8389    0.5125    1.2108 C   0  0  0  0  0  0  0  0  0  0  0  0
   -1.7577    4.0747    2.1485 O   0  0  0  0  0  0  0  0  0  0  0  0
   -2.5247    5.5622    0.6299 O   0  0  0  0  0  0  0  0  0  0  0  0
    1.5961    0.5399   -1.0772 H   0  0  0  0  0  0  0  0  0  0  0  0
    4.2493   -2.6926    0.5055 H   0  0  0  0  0  0  0  0  0  0  0  0
    3.6128   -1.9263    2.0174 H   0  0  0  0  0  0  0  0  0  0  0  0
    5.2070   -0.0491    1.7572 H   0  0  0  0  0  0  0  0  0  0  0  0
    6.0533   -1.6546    1.8492 H   0  0  0  0  0  0  0  0  0  0  0  0
    7.9374   -0.7516    0.7244 H   0  0  0  0  0  0  0  0  0  0  0  0
    7.0978    0.8708    0.6364 H   0  0  0  0  0  0  0  0  0  0  0  0
    7.6844    0.0611   -0.8532 H   0  0  0  0  0  0  0  0  0  0  0  0
   -0.1923   -0.2218    0.7249 H   0  0  0  0  0  0  0  0  0  0  0  0
    1.7316   -0.3887   -4.2629 H   0  0  0  0  0  0  0  0  0  0  0  0
    2.9295   -0.2775   -2.9182 H   0  0  0  0  0  0  0  0  0  0  0  0
    2.5193   -1.8867   -3.6195 H   0  0  0  0  0  0  0  0  0  0  0  0
   -1.0150    0.7661   -2.8892 H   0  0  0  0  0  0  0  0  0  0  0  0
   -0.9303    1.8819    1.2740 H   0  0  0  0  0  0  0  0  0  0  0  0
   -2.2472   -3.8699   -1.5177 H   0  0  0  0  0  0  0  0  0  0  0  0
   -1.7367   -3.5995   -3.2132 H   0  0  0  0  0  0  0  0  0  0  0  0
   -3.1008   -2.6345   -2.5598 H   0  0  0  0  0  0  0  0  0  0  0  0
   -1.9610    2.9569   -3.4558 H   0  0  0  0  0  0  0  0  0  0  0  0
   -4.2954   -1.3158    2.2522 H   0  0  0  0  0  0  0  0  0  0  0  0
   -2.4193    4.6172   -1.7045 H   0  0  0  0  0  0  0  0  0  0  0  0
   -2.7655   -0.2555    3.8938 H   0  0  0  0  0  0  0  0  0  0  0  0
   -4.3948    0.5152    3.9410 H   0  0  0  0  0  0  0  0  0  0  0  0
   -3.0161    1.3562    3.1205 H   0  0  0  0  0  0  0  0  0  0  0  0
   -4.3888    1.4921    0.9402 H   0  0  0  0  0  0  0  0  0  0  0  0
   -5.1235   -0.0172    0.2777 H   0  0  0  0  0  0  0  0  0  0  0  0
   -5.7600    0.6870    1.8068 H   0  0  0  0  0  0  0  0  0  0  0  0
  1  2  2  0
  2  3  1  0
  4  2  1  0
  5  4  1  0
  6  5  1  0
  7  6  1  0
  8  7  1  0
  3  9  1  0
 10  3  1  0
  9 11  1  0
  9 12  1  0
 13 10  2  0
 10 14  1  0
 11 15  2  0
 11 16  1  0
 12 17  2  0
 18 12  1  0
 15 13  1  0
 15 19  1  0
 16 20  2  0
 16 21  1  0
 17 22  1  0
 23 18  2  0
 21 24  1  0
 22 25  2  0
 25 23  1  0
 23 26  1  0
 24 27  1  0
 24 28  1  0
 26 29  2  0
 26 30  1  0
  3 31  1  0
  5 32  1  0
  5 33  1  0
  6 34  1  0
  6 35  1  0
  8 36  1  0
  8 37  1  0
  8 38  1  0
  9 39  1  0
 14 40  1  0
 14 41  1  0
 14 42  1  0
 17 43  1  0
 18 44  1  0
 19 45  1  0
 19 46  1  0
 19 47  1  0
 22 48  1  0
 24 49  1  0
 25 50  1  0
 27 51  1  0
 27 52  1  0
 27 53  1  0
 28 54  1  0
 28 55  1  0
 28 56  1  0
M  CHG  2  26   1  30  -1
M  END
> <ID>
HT1496

> <Class>
0.0

> <Clusters>
178

> <Fold>
4

$$$$