
     RDKit          3D

 71 71  0  0  0  0  0  0  0  0999 V2000
   -9.1700    3.1188   -0.0157 C   0  0  0  0  0  0  0  0  0  0  0  0
   -8.3468    3.2667   -1.2951 C   0  0  0  0  0  0  0  0  0  0  0  0
   -8.1374    1.9310   -2.0252 C   0  0  0  0  0  0  0  0  0  0  0  0
   -7.1880    0.9879   -1.2708 C   0  0  0  0  0  0  0  0  0  0  0  0
   -6.8978   -0.2737   -2.0978 C   0  0  0  0  0  0  0  0  0  0  0  0
   -6.0799   -1.3158   -1.3189 C   0  0  0  0  0  0  0  0  0  0  0  0
   -4.6247   -0.8775   -1.0938 C   0  0  0  0  0  0  0  0  0  0  0  0
   -3.8166   -1.9804   -0.4673 C   0  0  0  0  0  0  0  0  0  0  0  0
   -4.0229   -2.3689    0.8003 C   0  0  0  0  0  0  0  0  0  0  0  0
   -3.2147   -3.4712    1.4313 C   0  0  0  0  0  0  0  0  0  0  0  0
   -1.7523   -3.0643    1.6661 C   0  0  0  0  0  0  0  0  0  0  0  0
   -1.6282   -1.9006    2.6652 C   0  0  0  0  0  0  0  0  0  0  0  0
   -0.1725   -1.6195    3.0689 C   0  0  0  0  0  0  0  0  0  0  0  0
    0.6551   -1.0200    1.9220 C   0  0  0  0  0  0  0  0  0  0  0  0
    2.0558   -0.6250    2.4055 C   0  0  0  0  0  0  0  0  0  0  0  0
    2.8947   -0.0484    1.2557 C   0  0  0  0  0  0  0  0  0  0  0  0
    4.2782    0.3542    1.6814 C   0  0  0  0  0  0  0  0  0  0  0  0
    4.6556    0.2195    2.8789 O   0  0  0  0  0  0  0  0  0  0  0  0
    5.1464    0.8828    0.7230 O   0  0  0  0  0  0  0  0  0  0  0  0
    6.4780    1.2878    1.0300 C   0  0  0  0  0  0  0  0  0  0  0  0
    7.1881    1.8137   -0.2293 C   0  0  0  0  0  0  0  0  0  0  0  0
    6.5750    3.0024   -0.6665 O   0  0  0  0  0  0  0  0  0  0  0  0
    7.2385    0.7574   -1.3657 C   0  0  0  0  0  0  0  0  0  0  0  0
    7.8003   -0.4427   -0.8717 O   0  0  0  0  0  0  0  0  0  0  0  0
    8.5970   -0.9830   -1.8955 C   0  0  0  0  0  0  0  0  0  0  0  0
    9.1341    0.1651   -2.7268 C   0  0  0  0  0  0  0  0  0  0  0  0
   10.3645    0.6280   -2.2184 O   0  0  0  0  0  0  0  0  0  0  0  0
    8.0347    1.2030   -2.6126 C   0  0  0  0  0  0  0  0  0  0  0  0
    8.5555    2.5052   -2.5042 O   0  0  0  0  0  0  0  0  0  0  0  0
   -9.3880    4.1250    0.4004 H   0  0  0  0  0  0  0  0  0  0  0  0
  -10.1335    2.6091   -0.2297 H   0  0  0  0  0  0  0  0  0  0  0  0
   -8.6085    2.5439    0.7494 H   0  0  0  0  0  0  0  0  0  0  0  0
   -7.3651    3.7304   -1.0552 H   0  0  0  0  0  0  0  0  0  0  0  0
   -8.8865    3.9584   -1.9778 H   0  0  0  0  0  0  0  0  0  0  0  0
   -9.1190    1.4327   -2.1851 H   0  0  0  0  0  0  0  0  0  0  0  0
   -7.7044    2.1514   -3.0257 H   0  0  0  0  0  0  0  0  0  0  0  0
   -6.2373    1.5233   -1.0624 H   0  0  0  0  0  0  0  0  0  0  0  0
   -7.6498    0.6898   -0.3054 H   0  0  0  0  0  0  0  0  0  0  0  0
   -6.3642    0.0008   -3.0342 H   0  0  0  0  0  0  0  0  0  0  0  0
   -7.8638   -0.7437   -2.3863 H   0  0  0  0  0  0  0  0  0  0  0  0
   -6.0806   -2.2612   -1.9050 H   0  0  0  0  0  0  0  0  0  0  0  0
   -6.5733   -1.5245   -0.3447 H   0  0  0  0  0  0  0  0  0  0  0  0
   -4.1649   -0.6158   -2.0713 H   0  0  0  0  0  0  0  0  0  0  0  0
   -4.5803    0.0184   -0.4389 H   0  0  0  0  0  0  0  0  0  0  0  0
   -3.0364   -2.4525   -1.0581 H   0  0  0  0  0  0  0  0  0  0  0  0
   -4.8029   -1.8964    1.3913 H   0  0  0  0  0  0  0  0  0  0  0  0
   -3.6787   -3.7527    2.4013 H   0  0  0  0  0  0  0  0  0  0  0  0
   -3.2464   -4.3688    0.7763 H   0  0  0  0  0  0  0  0  0  0  0  0
   -1.2876   -2.7888    0.6960 H   0  0  0  0  0  0  0  0  0  0  0  0
   -1.2076   -3.9480    2.0642 H   0  0  0  0  0  0  0  0  0  0  0  0
   -2.1956   -2.1557    3.5870 H   0  0  0  0  0  0  0  0  0  0  0  0
   -2.0797   -0.9795    2.2362 H   0  0  0  0  0  0  0  0  0  0  0  0
   -0.1862   -0.8996    3.9167 H   0  0  0  0  0  0  0  0  0  0  0  0
    0.3051   -2.5564    3.4309 H   0  0  0  0  0  0  0  0  0  0  0  0
    0.1379   -0.1201    1.5222 H   0  0  0  0  0  0  0  0  0  0  0  0
    0.7550   -1.7654    1.1044 H   0  0  0  0  0  0  0  0  0  0  0  0
    1.9644    0.1367    3.2114 H   0  0  0  0  0  0  0  0  0  0  0  0
    2.5672   -1.5225    2.8192 H   0  0  0  0  0  0  0  0  0  0  0  0
    2.9857   -0.8074    0.4488 H   0  0  0  0  0  0  0  0  0  0  0  0
    2.3838    0.8455    0.8374 H   0  0  0  0  0  0  0  0  0  0  0  0
    6.4528    2.0928    1.7968 H   0  0  0  0  0  0  0  0  0  0  0  0
    7.0431    0.4275    1.4508 H   0  0  0  0  0  0  0  0  0  0  0  0
    8.2325    2.0577    0.0648 H   0  0  0  0  0  0  0  0  0  0  0  0
    5.6598    2.7748   -0.9770 H   0  0  0  0  0  0  0  0  0  0  0  0
    6.1936    0.5359   -1.6811 H   0  0  0  0  0  0  0  0  0  0  0  0
    9.4238   -1.5805   -1.4554 H   0  0  0  0  0  0  0  0  0  0  0  0
    7.9742   -1.6556   -2.5266 H   0  0  0  0  0  0  0  0  0  0  0  0
    9.2768   -0.1486   -3.7840 H   0  0  0  0  0  0  0  0  0  0  0  0
   10.2353    0.8640   -1.2617 H   0  0  0  0  0  0  0  0  0  0  0  0
    7.3674    1.1379   -3.5051 H   0  0  0  0  0  0  0  0  0  0  0  0
    8.8818    2.7549   -3.4080 H   0  0  0  0  0  0  0  0  0  0  0  0
  1  2  1  0
  2  3  1  0
  3  4  1  0
  4  5  1  0
  5  6  1  0
  6  7  1  0
  7  8  1  0
  8  9  2  3
  9 10  1  0
 10 11  1  0
 11 12  1  0
 12 13  1  0
 13 14  1  0
 14 15  1  0
 15 16  1  0
 16 17  1  0
 17 18  2  0
 17 19  1  0
 19 20  1  0
 20 21  1  0
 21 22  1  0
 21 23  1  0
 23 24  1  0
 24 25  1  0
 25 26  1  0
 26 27  1  0
 26 28  1  0
 28 23  1  0
 28 29  1  0
  1 30  1  0
  1 31  1  0
  1 32  1  0
  2 33  1  0
  2 34  1  0
  3 35  1  0
  3 36  1  0
  4 37  1  0
  4 38  1  0
  5 39  1  0
  5 40  1  0
  6 41  1  0
  6 42  1  0
  7 43  1  0
  7 44  1  0
  8 45  1  0
  9 46  1  0
 10 47  1  0
 10 48  1  0
 11 49  1  0
 11 50  1  0
 12 51  1  0
 12 52  1  0
 13 53  1  0
 13 54  1  0
 14 55  1  0
 14 56  1  0
 15 57  1  0
 15 58  1  0
 16 59  1  0
 16 60  1  0
 20 61  1  0
 20 62  1  0
 21 63  1  0
 22 64  1  0
 23 65  1  0
 25 66  1  0
 25 67  1  0
 26 68  1  0
 27 69  1  0
 28 70  1  0
 29 71  1  0
M  END
> <ID>
HT3793

> <Class>
0.0

> <Clusters>
270

> <Fold>
4

$$$$