
     RDKit          3D

 44 46  0  0  0  0  0  0  0  0999 V2000
   -2.7247   -2.8000   -1.1157 C   0  0  0  0  0  0  0  0  0  0  0  0
   -2.6636   -2.2755    0.3175 C   0  0  0  0  0  0  0  0  0  0  0  0
   -2.7490   -0.8003    0.3416 N   0  0  0  0  0  0  0  0  0  0  0  0
   -3.9720   -0.2521    0.6212 C   0  0  0  0  0  0  0  0  0  0  0  0
   -4.1666    1.1330    0.6638 C   0  0  0  0  0  0  0  0  0  0  0  0
   -5.5187    1.6659    0.9611 C   0  0  0  0  0  0  0  0  0  0  0  0
   -6.2678    1.0534    1.7677 O   0  0  0  0  0  0  0  0  0  0  0  0
   -6.0000    2.8187    0.3431 O   0  0  0  0  0  0  0  0  0  0  0  0
   -3.0688    1.9776    0.4465 C   0  0  0  0  0  0  0  0  0  0  0  0
   -3.2053    3.2289    0.5448 O   0  0  0  0  0  0  0  0  0  0  0  0
   -1.8106    1.4267    0.1466 C   0  0  0  0  0  0  0  0  0  0  0  0
   -0.7011    2.2601   -0.0909 C   0  0  0  0  0  0  0  0  0  0  0  0
    0.5464    1.7176   -0.3892 C   0  0  0  0  0  0  0  0  0  0  0  0
    1.6019    2.5487   -0.5803 F   0  0  0  0  0  0  0  0  0  0  0  0
    0.7131    0.3300   -0.4600 C   0  0  0  0  0  0  0  0  0  0  0  0
   -0.3811   -0.5112   -0.2139 C   0  0  0  0  0  0  0  0  0  0  0  0
   -1.6602    0.0148    0.0921 C   0  0  0  0  0  0  0  0  0  0  0  0
    2.0024   -0.2316   -0.7639 N   0  0  0  0  0  0  0  0  0  0  0  0
    2.6991    0.1189   -2.0038 C   0  0  0  0  0  0  0  0  0  0  0  0
    4.1544    0.5343   -1.7097 C   0  0  0  0  0  0  0  0  0  0  0  0
    4.7465   -0.1299   -0.5192 N   0  0  0  0  0  0  0  0  0  0  0  0
    4.8107    0.7775    0.6401 C   0  0  0  0  0  0  0  0  0  0  0  0
    4.0935   -1.4119   -0.1800 C   0  0  0  0  0  0  0  0  0  0  0  0
    2.5994   -1.2270    0.1317 C   0  0  0  0  0  0  0  0  0  0  0  0
   -2.6475   -3.9076   -1.1107 H   0  0  0  0  0  0  0  0  0  0  0  0
   -3.6909   -2.5115   -1.5812 H   0  0  0  0  0  0  0  0  0  0  0  0
   -1.8966   -2.3889   -1.7282 H   0  0  0  0  0  0  0  0  0  0  0  0
   -1.7510   -2.6326    0.8388 H   0  0  0  0  0  0  0  0  0  0  0  0
   -3.5061   -2.7329    0.8832 H   0  0  0  0  0  0  0  0  0  0  0  0
   -4.8266   -0.8980    0.7932 H   0  0  0  0  0  0  0  0  0  0  0  0
   -5.4946    3.2797   -0.4032 H   0  0  0  0  0  0  0  0  0  0  0  0
   -0.7942    3.3384   -0.0431 H   0  0  0  0  0  0  0  0  0  0  0  0
   -0.2127   -1.5735   -0.2879 H   0  0  0  0  0  0  0  0  0  0  0  0
    2.6986   -0.7697   -2.6721 H   0  0  0  0  0  0  0  0  0  0  0  0
    2.1755    0.9350   -2.5476 H   0  0  0  0  0  0  0  0  0  0  0  0
    4.7759    0.2818   -2.5952 H   0  0  0  0  0  0  0  0  0  0  0  0
    4.1970    1.6433   -1.6163 H   0  0  0  0  0  0  0  0  0  0  0  0
    5.4923    1.6251    0.4144 H   0  0  0  0  0  0  0  0  0  0  0  0
    3.8071    1.1845    0.8916 H   0  0  0  0  0  0  0  0  0  0  0  0
    5.2247    0.2507    1.5267 H   0  0  0  0  0  0  0  0  0  0  0  0
    4.6029   -1.8906    0.6850 H   0  0  0  0  0  0  0  0  0  0  0  0
    4.2045   -2.1113   -1.0377 H   0  0  0  0  0  0  0  0  0  0  0  0
    2.0750   -2.2000    0.0227 H   0  0  0  0  0  0  0  0  0  0  0  0
    2.4889   -0.8883    1.1849 H   0  0  0  0  0  0  0  0  0  0  0  0
  1  2  1  0
  2  3  1  0
  3  4  1  0
  4  5  2  0
  5  6  1  0
  6  7  2  0
  6  8  1  0
  5  9  1  0
  9 10  2  0
  9 11  1  0
 11 12  2  0
 12 13  1  0
 13 14  1  0
 13 15  2  0
 15 16  1  0
 16 17  2  0
 17  3  1  0
 17 11  1  0
 15 18  1  0
 18 19  1  0
 19 20  1  0
 20 21  1  0
 21 22  1  0
 21 23  1  0
 23 24  1  0
 24 18  1  0
  1 25  1  0
  1 26  1  0
  1 27  1  0
  2 28  1  0
  2 29  1  0
  4 30  1  0
  8 31  1  0
 12 32  1  0
 16 33  1  0
 19 34  1  0
 19 35  1  0
 20 36  1  0
 20 37  1  0
 22 38  1  0
 22 39  1  0
 22 40  1  0
 23 41  1  0
 23 42  1  0
 24 43  1  0
 24 44  1  0
M  END
> <ID>
HT1605

> <Class>
0.0

> <Clusters>
184

> <Fold>
4

$$$$