
     RDKit          3D

 33 33  0  0  0  0  0  0  0  0999 V2000
   -3.2104    0.5996   -1.0523 N   0  0  0  0  0  0  0  0  0  0  0  0
   -2.8748    0.2974    0.3419 C   0  0  0  0  0  0  0  0  0  0  0  0
   -4.0571   -0.4159    1.0198 C   0  0  0  0  0  0  0  0  0  0  0  0
   -5.2134    0.3754    0.9664 O   0  0  0  0  0  0  0  0  0  0  0  0
   -2.4355    1.5498    1.0801 C   0  0  0  0  0  0  0  0  0  0  0  0
   -3.1779    2.0637    1.9600 O   0  0  0  0  0  0  0  0  0  0  0  0
   -1.1744    2.1656    0.7926 N   0  0  0  0  0  0  0  0  0  0  0  0
   -0.2573    1.5667   -0.0880 N   0  0  0  0  0  0  0  0  0  0  0  0
    0.8067    0.9411    0.7033 C   0  0  0  0  0  0  0  0  0  0  0  0
    1.6970    0.0359   -0.1292 C   0  0  0  0  0  0  0  0  0  0  0  0
    1.4281   -0.2072   -1.4903 C   0  0  0  0  0  0  0  0  0  0  0  0
    2.2544   -1.0406   -2.2419 C   0  0  0  0  0  0  0  0  0  0  0  0
    3.3630   -1.6584   -1.6635 C   0  0  0  0  0  0  0  0  0  0  0  0
    4.1465   -2.4795   -2.4764 O   0  0  0  0  0  0  0  0  0  0  0  0
    3.6467   -1.4378   -0.2967 C   0  0  0  0  0  0  0  0  0  0  0  0
    4.7381   -2.0311    0.3434 O   0  0  0  0  0  0  0  0  0  0  0  0
    2.8148   -0.5997    0.4650 C   0  0  0  0  0  0  0  0  0  0  0  0
    3.1274   -0.4215    1.8164 O   0  0  0  0  0  0  0  0  0  0  0  0
   -3.8899    1.3945   -1.0821 H   0  0  0  0  0  0  0  0  0  0  0  0
   -2.3485    0.9111   -1.5544 H   0  0  0  0  0  0  0  0  0  0  0  0
   -2.0251   -0.4208    0.3541 H   0  0  0  0  0  0  0  0  0  0  0  0
   -4.2437   -1.3807    0.4965 H   0  0  0  0  0  0  0  0  0  0  0  0
   -3.8000   -0.6403    2.0801 H   0  0  0  0  0  0  0  0  0  0  0  0
   -5.9280   -0.1534    1.4077 H   0  0  0  0  0  0  0  0  0  0  0  0
   -0.8936    3.0201    1.3276 H   0  0  0  0  0  0  0  0  0  0  0  0
    0.1657    2.3336   -0.6622 H   0  0  0  0  0  0  0  0  0  0  0  0
    1.4293    1.7378    1.1691 H   0  0  0  0  0  0  0  0  0  0  0  0
    0.3544    0.3248    1.5122 H   0  0  0  0  0  0  0  0  0  0  0  0
    0.5760    0.2379   -1.9858 H   0  0  0  0  0  0  0  0  0  0  0  0
    2.0278   -1.2109   -3.2867 H   0  0  0  0  0  0  0  0  0  0  0  0
    4.9714   -2.9681   -2.1612 H   0  0  0  0  0  0  0  0  0  0  0  0
    5.3988   -2.6432   -0.1115 H   0  0  0  0  0  0  0  0  0  0  0  0
    2.5835    0.1539    2.4459 H   0  0  0  0  0  0  0  0  0  0  0  0
  1  2  1  0
  2  3  1  0
  3  4  1  0
  2  5  1  0
  5  6  2  0
  5  7  1  0
  7  8  1  0
  8  9  1  0
  9 10  1  0
 10 11  2  0
 11 12  1  0
 12 13  2  0
 13 14  1  0
 13 15  1  0
 15 16  1  0
 15 17  2  0
 17 10  1  0
 17 18  1  0
  1 19  1  0
  1 20  1  0
  2 21  1  0
  3 22  1  0
  3 23  1  0
  4 24  1  0
  7 25  1  0
  8 26  1  0
  9 27  1  0
  9 28  1  0
 11 29  1  0
 12 30  1  0
 14 31  1  0
 16 32  1  0
 18 33  1  0
M  END
> <ID>
HT3132

> <Class>
0.0

> <Clusters>
146

> <Fold>
4

$$$$