
     RDKit          3D

 26 26  0  0  0  0  0  0  0  0999 V2000
   -1.5578    0.5970   -1.2648 C   0  0  0  0  0  0  0  0  0  0  0  0
   -1.5479    0.1892    0.2227 C   0  0  0  0  0  0  0  0  0  0  0  0
   -2.7705    0.8213    0.9217 C   0  0  0  0  0  0  0  0  0  0  0  0
   -1.6249   -1.2750    0.3204 N   0  0  0  0  0  0  0  0  0  0  0  0
   -0.2534    0.6989    0.9151 C   0  0  0  0  0  0  0  0  0  0  0  0
    1.0139    0.1336    0.3146 C   0  0  0  0  0  0  0  0  0  0  0  0
    1.4611   -1.1506    0.6712 C   0  0  0  0  0  0  0  0  0  0  0  0
    2.6380   -1.6663    0.1197 C   0  0  0  0  0  0  0  0  0  0  0  0
    3.3810   -0.9033   -0.7849 C   0  0  0  0  0  0  0  0  0  0  0  0
    2.9505    0.3787   -1.1364 C   0  0  0  0  0  0  0  0  0  0  0  0
    1.7747    0.8987   -0.5868 C   0  0  0  0  0  0  0  0  0  0  0  0
   -1.4227    1.6949   -1.3725 H   0  0  0  0  0  0  0  0  0  0  0  0
   -0.7447    0.0820   -1.8191 H   0  0  0  0  0  0  0  0  0  0  0  0
   -2.5214    0.3143   -1.7408 H   0  0  0  0  0  0  0  0  0  0  0  0
   -2.7905    0.5464    1.9983 H   0  0  0  0  0  0  0  0  0  0  0  0
   -2.7376    1.9296    0.8440 H   0  0  0  0  0  0  0  0  0  0  0  0
   -3.7152    0.4663    0.4565 H   0  0  0  0  0  0  0  0  0  0  0  0
   -1.6715   -1.5539    1.3281 H   0  0  0  0  0  0  0  0  0  0  0  0
   -2.5098   -1.6097   -0.1273 H   0  0  0  0  0  0  0  0  0  0  0  0
   -0.2242    1.8104    0.8634 H   0  0  0  0  0  0  0  0  0  0  0  0
   -0.2786    0.4448    1.9980 H   0  0  0  0  0  0  0  0  0  0  0  0
    0.9031   -1.7496    1.3795 H   0  0  0  0  0  0  0  0  0  0  0  0
    2.9757   -2.6567    0.3961 H   0  0  0  0  0  0  0  0  0  0  0  0
    4.2918   -1.3040   -1.2106 H   0  0  0  0  0  0  0  0  0  0  0  0
    3.5283    0.9701   -1.8349 H   0  0  0  0  0  0  0  0  0  0  0  0
    1.4527    1.8929   -0.8711 H   0  0  0  0  0  0  0  0  0  0  0  0
  1  2  1  0
  2  3  1  0
  2  4  1  0
  2  5  1  0
  5  6  1  0
  6  7  2  0
  7  8  1  0
  8  9  2  0
  9 10  1  0
 10 11  2  0
 11  6  1  0
  1 12  1  0
  1 13  1  0
  1 14  1  0
  3 15  1  0
  3 16  1  0
  3 17  1  0
  4 18  1  0
  4 19  1  0
  5 20  1  0
  5 21  1  0
  7 22  1  0
  8 23  1  0
  9 24  1  0
 10 25  1  0
 11 26  1  0
M  END
> <ID>
HT1657

> <Class>
0.0

> <Clusters>
246

> <Fold>
4

$$$$