
     RDKit          3D

 29 31  0  0  0  0  0  0  0  0999 V2000
   -3.3376   -1.2333    0.2372 C   0  0  0  0  0  0  0  0  0  0  0  0
   -1.9837   -0.7304   -0.2576 C   0  0  2  0  0  0  0  0  0  0  0  0
   -0.8354   -1.3084    0.5842 C   0  0  0  0  0  0  0  0  0  0  0  0
    0.5320   -0.7308    0.1475 C   0  0  1  0  0  0  0  0  0  0  0  0
    1.5374   -1.0608    1.1617 N   0  0  0  0  0  0  0  0  0  0  0  0
    2.5254   -1.8839    0.5581 C   0  0  0  0  0  0  0  0  0  0  0  0
    3.5251   -2.3340    1.1763 O   0  0  0  0  0  0  0  0  0  0  0  0
    2.2757   -2.1398   -0.8088 N   0  0  0  0  0  0  0  0  0  0  0  0
    1.0700   -1.4382   -1.0750 C   0  0  0  0  0  0  0  0  0  0  0  0
    0.5407   -1.4048   -2.2175 O   0  0  0  0  0  0  0  0  0  0  0  0
    0.4788    0.7721   -0.0854 C   0  0  0  0  0  0  0  0  0  0  0  0
    1.6616    1.5308   -0.1792 C   0  0  0  0  0  0  0  0  0  0  0  0
    1.6021    2.9116   -0.3892 C   0  0  0  0  0  0  0  0  0  0  0  0
    2.7465    3.6342   -0.4695 F   0  0  0  0  0  0  0  0  0  0  0  0
    0.3653    3.5481   -0.5153 C   0  0  0  0  0  0  0  0  0  0  0  0
   -0.8147    2.8045   -0.4443 C   0  0  0  0  0  0  0  0  0  0  0  0
   -0.7647    1.4206   -0.2468 C   0  0  0  0  0  0  0  0  0  0  0  0
   -1.9588    0.6942   -0.1996 O   0  0  0  0  0  0  0  0  0  0  0  0
   -4.1475   -0.8152   -0.3975 H   0  0  0  0  0  0  0  0  0  0  0  0
   -3.5089   -0.9161    1.2881 H   0  0  0  0  0  0  0  0  0  0  0  0
   -3.3803   -2.3418    0.1793 H   0  0  0  0  0  0  0  0  0  0  0  0
   -1.8620   -1.0475   -1.3154 H   0  0  0  0  0  0  0  0  0  0  0  0
   -1.0109   -1.0460    1.6516 H   0  0  0  0  0  0  0  0  0  0  0  0
   -0.8266   -2.4186    0.5079 H   0  0  0  0  0  0  0  0  0  0  0  0
    1.5350   -0.7444    2.1573 H   0  0  0  0  0  0  0  0  0  0  0  0
    2.8561   -2.6958   -1.4750 H   0  0  0  0  0  0  0  0  0  0  0  0
    2.6291    1.0539   -0.0866 H   0  0  0  0  0  0  0  0  0  0  0  0
    0.3202    4.6178   -0.6749 H   0  0  0  0  0  0  0  0  0  0  0  0
   -1.7701    3.3018   -0.5536 H   0  0  0  0  0  0  0  0  0  0  0  0
  2  1  1  0
  2  3  1  0
  3  4  1  0
  4  5  1  0
  5  6  1  0
  6  7  2  0
  6  8  1  0
  8  9  1  0
  4  9  1  6
  9 10  2  0
  4 11  1  0
 11 12  2  0
 12 13  1  0
 13 14  1  0
 13 15  2  0
 15 16  1  0
 16 17  2  0
 17 11  1  0
 17 18  1  0
 18  2  1  0
  1 19  1  0
  1 20  1  0
  1 21  1  0
  2 22  1  6
  3 23  1  0
  3 24  1  0
  5 25  1  0
  8 26  1  0
 12 27  1  0
 15 28  1  0
 16 29  1  0
M  END
> <ID>
HT1906

> <Class>
0.0

> <Clusters>
217

> <Fold>
4

$$$$