
     RDKit          3D

 31 31  0  0  0  0  0  0  0  0999 V2000
   -0.2994   -1.8401   -0.4093 C   0  0  0  0  0  0  0  0  0  0  0  0
   -0.6603   -0.3423   -0.3536 C   0  0  2  0  0  0  0  0  0  0  0  0
    0.4286    0.4140    0.4665 C   0  0  0  0  0  0  0  0  0  0  0  0
    1.8102    0.2793   -0.1315 C   0  0  0  0  0  0  0  0  0  0  0  0
    2.1123    0.8869   -1.3627 C   0  0  0  0  0  0  0  0  0  0  0  0
    3.3907    0.7632   -1.9154 C   0  0  0  0  0  0  0  0  0  0  0  0
    4.3774    0.0374   -1.2431 C   0  0  0  0  0  0  0  0  0  0  0  0
    4.0882   -0.5640   -0.0154 C   0  0  0  0  0  0  0  0  0  0  0  0
    2.8113   -0.4426    0.5416 C   0  0  0  0  0  0  0  0  0  0  0  0
   -2.0558   -0.2137    0.1806 N   0  0  0  0  0  0  0  0  0  0  0  0
   -3.0298   -0.3152   -0.9317 C   0  0  0  0  0  0  0  0  0  0  0  0
   -2.3220    1.0130    0.9728 C   0  0  0  0  0  0  0  0  0  0  0  0
   -3.6559    0.9778    1.5934 C   0  0  0  0  0  0  0  0  0  0  0  0
   -4.7480    0.9504    2.1033 C   0  0  0  0  0  0  0  0  0  0  0  0
   -1.0588   -2.4207   -0.9696 H   0  0  0  0  0  0  0  0  0  0  0  0
   -0.2335   -2.2576    0.6182 H   0  0  0  0  0  0  0  0  0  0  0  0
    0.6711   -1.9961   -0.9252 H   0  0  0  0  0  0  0  0  0  0  0  0
   -0.6142    0.0593   -1.3926 H   0  0  0  0  0  0  0  0  0  0  0  0
    0.4270    0.0367    1.5130 H   0  0  0  0  0  0  0  0  0  0  0  0
    0.2041    1.5015    0.4961 H   0  0  0  0  0  0  0  0  0  0  0  0
    1.3598    1.4583   -1.8916 H   0  0  0  0  0  0  0  0  0  0  0  0
    3.6168    1.2317   -2.8645 H   0  0  0  0  0  0  0  0  0  0  0  0
    5.3664   -0.0574   -1.6724 H   0  0  0  0  0  0  0  0  0  0  0  0
    4.8538   -1.1248    0.5050 H   0  0  0  0  0  0  0  0  0  0  0  0
    2.6027   -0.9177    1.4921 H   0  0  0  0  0  0  0  0  0  0  0  0
   -4.0548   -0.4809   -0.5391 H   0  0  0  0  0  0  0  0  0  0  0  0
   -3.0215    0.6060   -1.5558 H   0  0  0  0  0  0  0  0  0  0  0  0
   -2.8107   -1.1813   -1.5888 H   0  0  0  0  0  0  0  0  0  0  0  0
   -1.6192    1.0890    1.8260 H   0  0  0  0  0  0  0  0  0  0  0  0
   -2.2296    1.9237    0.3408 H   0  0  0  0  0  0  0  0  0  0  0  0
   -5.7068    0.9261    2.5505 H   0  0  0  0  0  0  0  0  0  0  0  0
  2  1  1  0
  2  3  1  0
  3  4  1  0
  4  5  2  0
  5  6  1  0
  6  7  2  0
  7  8  1  0
  8  9  2  0
  9  4  1  0
  2 10  1  0
 10 11  1  0
 10 12  1  0
 12 13  1  0
 13 14  3  0
  1 15  1  0
  1 16  1  0
  1 17  1  0
  2 18  1  6
  3 19  1  0
  3 20  1  0
  5 21  1  0
  6 22  1  0
  7 23  1  0
  8 24  1  0
  9 25  1  0
 11 26  1  0
 11 27  1  0
 11 28  1  0
 12 29  1  0
 12 30  1  0
 14 31  1  0
M  END
> <ID>
HT1874

> <Class>
0.0

> <Clusters>
164

> <Fold>
4

$$$$