
     RDKit          3D

 71 73  0  0  0  0  0  0  0  0999 V2000
   -5.2445   -1.7737    0.9873 C   0  0  0  0  0  0  0  0  0  0  0  0
   -4.7762   -2.9464    0.0951 C   0  0  2  0  0  0  0  0  0  0  0  0
   -3.9397   -3.9725    0.8738 C   0  0  0  0  0  0  0  0  0  0  0  0
   -2.5598   -3.4216    1.2902 C   0  0  0  0  0  0  0  0  0  0  0  0
   -2.1614   -2.2352    0.5032 N   0  0  0  0  0  0  0  0  0  0  0  0
   -2.5081   -2.2165   -0.9399 C   0  0  2  0  0  0  0  0  0  0  0  0
   -4.0211   -2.4742   -1.1634 C   0  0  0  0  0  0  0  0  0  0  0  0
   -1.6624   -3.1968   -1.7217 C   0  0  0  0  0  0  0  0  0  0  0  0
   -0.7898   -3.9074   -1.1521 O   0  0  0  0  0  0  0  0  0  0  0  0
   -1.8220   -3.2800   -3.1040 O   0  0  0  0  0  0  0  0  0  0  0  0
   -1.4916   -1.1329    1.1904 C   0  0  0  0  0  0  0  0  0  0  0  0
   -1.4296   -1.1463    2.4482 O   0  0  0  0  0  0  0  0  0  0  0  0
   -0.9636    0.1298    0.5158 C   0  0  2  0  0  0  0  0  0  0  0  0
   -2.1437    1.0933    0.2452 C   0  0  0  0  0  0  0  0  0  0  0  0
   -1.7015    2.4660   -0.2894 C   0  0  0  0  0  0  0  0  0  0  0  0
   -2.9129    3.3661   -0.5414 C   0  0  0  0  0  0  0  0  0  0  0  0
   -2.4911    4.6022   -1.2011 N   0  0  0  0  0  0  0  0  0  0  0  0
   -2.5894    5.8153   -0.7415 C   0  0  0  0  0  0  0  0  0  0  0  0
   -2.2201    6.9064   -1.5851 N   0  0  0  0  0  0  0  0  0  0  0  0
   -3.0701    6.0948    0.5783 N   0  0  0  0  0  0  0  0  0  0  0  0
   -0.1883   -0.1469   -0.7193 N   0  0  0  0  0  0  0  0  0  0  0  0
    1.4073    0.5691   -0.6932 S   0  0  0  0  0  0  0  0  0  0  0  0
    1.3428    1.9514   -0.1077 O   0  0  0  0  0  0  0  0  0  0  0  0
    1.8803    0.6656   -2.1158 O   0  0  0  0  0  0  0  0  0  0  0  0
    2.5834   -0.3987    0.2258 C   0  0  0  0  0  0  0  0  0  0  0  0
    2.1611   -1.5845    0.8566 C   0  0  0  0  0  0  0  0  0  0  0  0
    3.0635   -2.3696    1.5697 C   0  0  0  0  0  0  0  0  0  0  0  0
    4.3997   -1.9959    1.6663 C   0  0  0  0  0  0  0  0  0  0  0  0
    4.8485   -0.8251    1.0484 C   0  0  0  0  0  0  0  0  0  0  0  0
    6.2744   -0.3929    1.2628 C   0  0  0  0  0  0  0  0  0  0  0  0
    6.7898    0.5015    0.1232 C   0  0  0  0  0  0  0  0  0  0  0  0
    7.0559   -0.2900   -1.1735 C   0  0  0  0  0  0  0  0  0  0  0  0
    5.8182    1.6667   -0.1239 C   0  0  0  0  0  0  0  0  0  0  0  0
    4.4439    1.1942   -0.2989 N   0  0  0  0  0  0  0  0  0  0  0  0
    3.9474   -0.0073    0.3280 C   0  0  0  0  0  0  0  0  0  0  0  0
   -6.0396   -2.1481    1.6741 H   0  0  0  0  0  0  0  0  0  0  0  0
   -4.4244   -1.3743    1.6215 H   0  0  0  0  0  0  0  0  0  0  0  0
   -5.6892   -0.9664    0.3630 H   0  0  0  0  0  0  0  0  0  0  0  0
   -5.6992   -3.4668   -0.2487 H   0  0  0  0  0  0  0  0  0  0  0  0
   -4.5004   -4.3093    1.7721 H   0  0  0  0  0  0  0  0  0  0  0  0
   -3.7965   -4.8679    0.2357 H   0  0  0  0  0  0  0  0  0  0  0  0
   -1.7937   -4.2183    1.1707 H   0  0  0  0  0  0  0  0  0  0  0  0
   -2.6055   -3.1870    2.3755 H   0  0  0  0  0  0  0  0  0  0  0  0
   -2.3020   -1.2317   -1.3878 H   0  0  0  0  0  0  0  0  0  0  0  0
   -4.5057   -1.5611   -1.5699 H   0  0  0  0  0  0  0  0  0  0  0  0
   -4.1783   -3.2387   -1.9521 H   0  0  0  0  0  0  0  0  0  0  0  0
   -1.2678   -3.9239   -3.6546 H   0  0  0  0  0  0  0  0  0  0  0  0
   -0.3092    0.6313    1.2702 H   0  0  0  0  0  0  0  0  0  0  0  0
   -2.8609    0.6438   -0.4719 H   0  0  0  0  0  0  0  0  0  0  0  0
   -2.6976    1.2551    1.1970 H   0  0  0  0  0  0  0  0  0  0  0  0
   -1.1397    2.3348   -1.2408 H   0  0  0  0  0  0  0  0  0  0  0  0
   -1.0441    2.9542    0.4605 H   0  0  0  0  0  0  0  0  0  0  0  0
   -3.4499    3.5552    0.4086 H   0  0  0  0  0  0  0  0  0  0  0  0
   -3.6247    2.8485   -1.2165 H   0  0  0  0  0  0  0  0  0  0  0  0
   -2.3399    7.8926   -1.2608 H   0  0  0  0  0  0  0  0  0  0  0  0
   -1.8283    6.7291   -2.5392 H   0  0  0  0  0  0  0  0  0  0  0  0
   -3.4120    7.0544    0.8093 H   0  0  0  0  0  0  0  0  0  0  0  0
   -2.9332    5.4257    1.3666 H   0  0  0  0  0  0  0  0  0  0  0  0
   -0.0454   -1.1695   -0.8672 H   0  0  0  0  0  0  0  0  0  0  0  0
    1.1347   -1.9062    0.8164 H   0  0  0  0  0  0  0  0  0  0  0  0
    2.7249   -3.2686    2.0577 H   0  0  0  0  0  0  0  0  0  0  0  0
    5.0818   -2.6074    2.2443 H   0  0  0  0  0  0  0  0  0  0  0  0
    6.3178    0.1730    2.2223 H   0  0  0  0  0  0  0  0  0  0  0  0
    6.9402   -1.2784    1.3703 H   0  0  0  0  0  0  0  0  0  0  0  0
    7.7652    0.9264    0.4557 H   0  0  0  0  0  0  0  0  0  0  0  0
    7.8071    0.2601   -1.7795 H   0  0  0  0  0  0  0  0  0  0  0  0
    6.1347   -0.3999   -1.7762 H   0  0  0  0  0  0  0  0  0  0  0  0
    7.4688   -1.2959   -0.9559 H   0  0  0  0  0  0  0  0  0  0  0  0
    5.8445    2.3656    0.7404 H   0  0  0  0  0  0  0  0  0  0  0  0
    6.1343    2.2320   -1.0281 H   0  0  0  0  0  0  0  0  0  0  0  0
    3.8036    1.8299   -0.8192 H   0  0  0  0  0  0  0  0  0  0  0  0
  2  1  1  0
  2  3  1  0
  3  4  1  0
  4  5  1  0
  5  6  1  0
  6  7  1  0
  7  2  1  0
  6  8  1  0
  8  9  2  0
  8 10  1  0
  5 11  1  0
 11 12  2  0
 11 13  1  0
 13 14  1  0
 14 15  1  0
 15 16  1  0
 16 17  1  0
 17 18  2  3
 18 19  1  0
 18 20  1  0
 13 21  1  0
 21 22  1  0
 22 23  2  0
 22 24  2  0
 22 25  1  0
 25 26  2  0
 26 27  1  0
 27 28  2  0
 28 29  1  0
 29 30  1  0
 30 31  1  0
 31 32  1  0
 31 33  1  0
 33 34  1  0
 34 35  1  0
 35 25  1  0
 35 29  2  0
  1 36  1  0
  1 37  1  0
  1 38  1  0
  2 39  1  6
  3 40  1  0
  3 41  1  0
  4 42  1  0
  4 43  1  0
  6 44  1  6
  7 45  1  0
  7 46  1  0
 10 47  1  0
 13 48  1  1
 14 49  1  0
 14 50  1  0
 15 51  1  0
 15 52  1  0
 16 53  1  0
 16 54  1  0
 19 55  1  0
 19 56  1  0
 20 57  1  0
 20 58  1  0
 21 59  1  0
 26 60  1  0
 27 61  1  0
 28 62  1  0
 30 63  1  0
 30 64  1  0
 31 65  1  0
 32 66  1  0
 32 67  1  0
 32 68  1  0
 33 69  1  0
 33 70  1  0
 34 71  1  0
M  END
> <ID>
HT0179

> <Class>
0.0

> <Clusters>
94

> <Fold>
4

$$$$