
     RDKit          3D

 31 30  0  0  0  0  0  0  0  0999 V2000
   -2.7595    2.3064   -0.0155 C   0  0  0  0  0  0  0  0  0  0  0  0
   -2.1557    0.9091    0.1472 C   0  0  0  0  0  0  0  0  0  0  0  0
   -0.6367    0.8472   -0.1668 C   0  0  0  0  0  0  0  0  0  0  0  0
    0.1413    1.8010    0.7679 C   0  0  0  0  0  0  0  0  0  0  0  0
   -0.0769   -0.6113   -0.0517 C   0  0  0  0  0  0  0  0  0  0  0  0
   -0.8127   -1.6339   -0.9673 C   0  0  0  0  0  0  0  0  0  0  0  0
   -1.8110   -2.5012   -0.1963 C   0  0  0  0  0  0  0  0  0  0  0  0
    1.4000   -0.6386   -0.3838 C   0  0  0  0  0  0  0  0  0  0  0  0
    1.7838   -0.2939   -1.5354 O   0  0  0  0  0  0  0  0  0  0  0  0
    2.3505   -1.0889    0.5936 N   0  0  0  0  0  0  0  0  0  0  0  0
    3.7657   -0.8806    0.4865 C   0  0  0  0  0  0  0  0  0  0  0  0
    4.5514   -1.6687    1.0764 O   0  0  0  0  0  0  0  0  0  0  0  0
    4.3013    0.2320   -0.2335 N   0  0  0  0  0  0  0  0  0  0  0  0
   -2.4454    2.9717    0.8152 H   0  0  0  0  0  0  0  0  0  0  0  0
   -3.8675    2.2355    0.0115 H   0  0  0  0  0  0  0  0  0  0  0  0
   -2.4585    2.7513   -0.9877 H   0  0  0  0  0  0  0  0  0  0  0  0
   -2.3470    0.5475    1.1811 H   0  0  0  0  0  0  0  0  0  0  0  0
   -2.7086    0.2522   -0.5540 H   0  0  0  0  0  0  0  0  0  0  0  0
   -0.4873    1.1978   -1.2128 H   0  0  0  0  0  0  0  0  0  0  0  0
   -0.0346    1.5336    1.8318 H   0  0  0  0  0  0  0  0  0  0  0  0
    1.2318    1.7645    0.5680 H   0  0  0  0  0  0  0  0  0  0  0  0
   -0.1632    2.8543    0.6018 H   0  0  0  0  0  0  0  0  0  0  0  0
   -0.1910   -0.9292    1.0093 H   0  0  0  0  0  0  0  0  0  0  0  0
   -1.3290   -1.1185   -1.8053 H   0  0  0  0  0  0  0  0  0  0  0  0
   -0.0898   -2.3355   -1.4415 H   0  0  0  0  0  0  0  0  0  0  0  0
   -1.2744   -3.1244    0.5505 H   0  0  0  0  0  0  0  0  0  0  0  0
   -2.5648   -1.8835    0.3310 H   0  0  0  0  0  0  0  0  0  0  0  0
   -2.3394   -3.1758   -0.9024 H   0  0  0  0  0  0  0  0  0  0  0  0
    2.0038   -1.6598    1.3971 H   0  0  0  0  0  0  0  0  0  0  0  0
    5.3348    0.3348   -0.3419 H   0  0  0  0  0  0  0  0  0  0  0  0
    3.6885    1.0052   -0.5727 H   0  0  0  0  0  0  0  0  0  0  0  0
  1  2  1  0
  2  3  1  0
  3  4  1  0
  3  5  1  0
  5  6  1  0
  6  7  1  0
  5  8  1  0
  8  9  2  0
  8 10  1  0
 10 11  1  0
 11 12  2  0
 11 13  1  0
  1 14  1  0
  1 15  1  0
  1 16  1  0
  2 17  1  0
  2 18  1  0
  3 19  1  0
  4 20  1  0
  4 21  1  0
  4 22  1  0
  5 23  1  0
  6 24  1  0
  6 25  1  0
  7 26  1  0
  7 27  1  0
  7 28  1  0
 10 29  1  0
 13 30  1  0
 13 31  1  0
M  END
> <ID>
HT2804

> <Class>
0.0

> <Clusters>
256

> <Fold>
4

$$$$