
     RDKit          3D

 29 29  0  0  0  0  0  0  0  0999 V2000
   -1.6484    0.1506    1.7677 C   0  0  0  0  0  0  0  0  0  0  0  0
   -1.7361    0.0622    0.2236 C   0  0  0  0  0  0  0  0  0  0  0  0
   -1.6763    1.5054   -0.3243 C   0  0  0  0  0  0  0  0  0  0  0  0
   -3.0012   -0.4548   -0.1242 O   0  0  0  0  0  0  0  0  0  0  0  0
   -0.5981   -0.8698   -0.3640 C   0  0  0  0  0  0  0  0  0  0  0  0
   -0.8355   -1.1534   -1.8734 C   0  0  0  0  0  0  0  0  0  0  0  0
   -0.6846   -2.1171    0.2949 O   0  0  0  0  0  0  0  0  0  0  0  0
    0.8022   -0.2660   -0.1259 C   0  0  0  0  0  0  0  0  0  0  0  0
    1.5399   -0.6117    1.0281 C   0  0  0  0  0  0  0  0  0  0  0  0
    2.8061   -0.0681    1.2602 C   0  0  0  0  0  0  0  0  0  0  0  0
    3.3606    0.8332    0.3502 C   0  0  0  0  0  0  0  0  0  0  0  0
    4.9491    1.5159    0.6459 Cl  0  0  0  0  0  0  0  0  0  0  0  0
    2.6450    1.1957   -0.7920 C   0  0  0  0  0  0  0  0  0  0  0  0
    1.3781    0.6555   -1.0298 C   0  0  0  0  0  0  0  0  0  0  0  0
   -1.6814   -0.8574    2.2320 H   0  0  0  0  0  0  0  0  0  0  0  0
   -0.7142    0.6578    2.0885 H   0  0  0  0  0  0  0  0  0  0  0  0
   -2.5077    0.7309    2.1678 H   0  0  0  0  0  0  0  0  0  0  0  0
   -2.5260    2.0980    0.0787 H   0  0  0  0  0  0  0  0  0  0  0  0
   -0.7413    2.0197   -0.0196 H   0  0  0  0  0  0  0  0  0  0  0  0
   -1.7636    1.5314   -1.4280 H   0  0  0  0  0  0  0  0  0  0  0  0
   -3.0989   -1.3490    0.2964 H   0  0  0  0  0  0  0  0  0  0  0  0
   -0.9537   -0.2343   -2.4772 H   0  0  0  0  0  0  0  0  0  0  0  0
   -1.7539   -1.7632   -2.0104 H   0  0  0  0  0  0  0  0  0  0  0  0
    0.0157   -1.7314   -2.2937 H   0  0  0  0  0  0  0  0  0  0  0  0
    0.0189   -2.7158   -0.0731 H   0  0  0  0  0  0  0  0  0  0  0  0
    1.1337   -1.2952    1.7623 H   0  0  0  0  0  0  0  0  0  0  0  0
    3.3537   -0.3464    2.1516 H   0  0  0  0  0  0  0  0  0  0  0  0
    3.0676    1.9009   -1.4964 H   0  0  0  0  0  0  0  0  0  0  0  0
    0.8503    0.9763   -1.9159 H   0  0  0  0  0  0  0  0  0  0  0  0
  1  2  1  0
  2  3  1  0
  2  4  1  0
  2  5  1  0
  5  6  1  0
  5  7  1  0
  5  8  1  0
  8  9  2  0
  9 10  1  0
 10 11  2  0
 11 12  1  0
 11 13  1  0
 13 14  2  0
 14  8  1  0
  1 15  1  0
  1 16  1  0
  1 17  1  0
  3 18  1  0
  3 19  1  0
  3 20  1  0
  4 21  1  0
  6 22  1  0
  6 23  1  0
  6 24  1  0
  7 25  1  0
  9 26  1  0
 10 27  1  0
 13 28  1  0
 14 29  1  0
M  END
> <ID>
HT2925

> <Class>
0.0

> <Clusters>
54

> <Fold>
4

$$$$