
     RDKit          3D

 68 70  0  0  0  0  0  0  0  0999 V2000
    5.2562    2.6686    0.3215 C   0  0  0  0  0  0  0  0  0  0  0  0
    5.8471    1.5499   -0.4190 N   0  0  0  0  0  0  0  0  0  0  0  0
    5.1147    0.2597   -0.3617 C   0  0  0  0  0  0  0  0  0  0  0  0
    3.5671    0.3536   -0.3504 C   0  0  0  0  0  0  0  0  0  0  0  0
    3.1163    0.8523    0.8871 O   0  0  0  0  0  0  0  0  0  0  0  0
    2.9967   -1.0822   -0.5766 C   0  0  0  0  0  0  0  0  0  0  0  0
    1.7439   -1.2613    0.0697 O   0  0  0  0  0  0  0  0  0  0  0  0
    0.6478   -0.8255   -0.7269 C   0  0  0  0  0  0  0  0  0  0  0  0
   -0.0339   -2.0411   -1.3958 C   0  0  0  0  0  0  0  0  0  0  0  0
    0.9369   -2.8438   -2.1425 N   0  0  0  0  0  0  0  0  0  0  0  0
   -1.1933   -1.5871   -2.3186 C   0  0  0  0  0  0  0  0  0  0  0  0
   -2.0420   -0.4251   -1.7418 C   0  0  0  0  0  0  0  0  0  0  0  0
   -1.7784    0.8189   -2.4770 N   0  0  0  0  0  0  0  0  0  0  0  0
   -1.8489   -0.2561   -0.2154 C   0  0  0  0  0  0  0  0  0  0  0  0
   -2.6120    0.8553    0.2302 O   0  0  0  0  0  0  0  0  0  0  0  0
   -3.4798    0.5052    1.2916 C   0  0  0  0  0  0  0  0  0  0  0  0
   -4.5279   -0.3384    0.8014 O   0  0  0  0  0  0  0  0  0  0  0  0
   -5.6696    0.1650    0.1621 C   0  0  0  0  0  0  0  0  0  0  0  0
   -5.9406    1.4783    0.1905 C   0  0  0  0  0  0  0  0  0  0  0  0
   -4.9909    2.4575    0.8260 C   0  0  0  0  0  0  0  0  0  0  0  0
   -4.0895    1.7880    1.8841 C   0  0  0  0  0  0  0  0  0  0  0  0
   -4.8670    1.4674    3.0847 N   0  0  0  0  0  0  0  0  0  0  0  0
   -6.6129   -0.8019   -0.4983 C   0  0  0  0  0  0  0  0  0  0  0  0
   -7.6515   -1.2412    0.4307 N   0  0  0  0  0  0  0  0  0  0  0  0
   -0.3560   -0.0778    0.1954 C   0  0  0  0  0  0  0  0  0  0  0  0
   -0.0137    1.2845    0.2360 O   0  0  0  0  0  0  0  0  0  0  0  0
    3.8821   -2.1198   -0.1602 O   0  0  0  0  0  0  0  0  0  0  0  0
    4.5635   -1.7868    1.0347 C   0  0  0  0  0  0  0  0  0  0  0  0
    5.6199   -0.6684    0.7849 C   0  0  0  0  0  0  0  0  0  0  0  0
    6.9751   -1.2903    0.3864 C   0  0  0  0  0  0  0  0  0  0  0  0
    5.7874    0.0832    1.9636 O   0  0  0  0  0  0  0  0  0  0  0  0
    5.1329    2.4171    1.3953 H   0  0  0  0  0  0  0  0  0  0  0  0
    4.2825    2.9756   -0.1230 H   0  0  0  0  0  0  0  0  0  0  0  0
    5.9384    3.5470    0.2590 H   0  0  0  0  0  0  0  0  0  0  0  0
    5.9196    1.8459   -1.4208 H   0  0  0  0  0  0  0  0  0  0  0  0
    5.3516   -0.2648   -1.3199 H   0  0  0  0  0  0  0  0  0  0  0  0
    3.2367    1.0079   -1.1935 H   0  0  0  0  0  0  0  0  0  0  0  0
    2.5010    1.6074    0.6999 H   0  0  0  0  0  0  0  0  0  0  0  0
    2.9081   -1.2151   -1.6783 H   0  0  0  0  0  0  0  0  0  0  0  0
    0.9604   -0.1197   -1.5341 H   0  0  0  0  0  0  0  0  0  0  0  0
   -0.4521   -2.6838   -0.5874 H   0  0  0  0  0  0  0  0  0  0  0  0
    0.4668   -3.7247   -2.4590 H   0  0  0  0  0  0  0  0  0  0  0  0
    1.2427   -2.3241   -2.9977 H   0  0  0  0  0  0  0  0  0  0  0  0
   -1.8527   -2.4661   -2.4970 H   0  0  0  0  0  0  0  0  0  0  0  0
   -0.7957   -1.2919   -3.3131 H   0  0  0  0  0  0  0  0  0  0  0  0
   -3.1127   -0.6859   -1.9084 H   0  0  0  0  0  0  0  0  0  0  0  0
   -2.5051    1.5248   -2.2231 H   0  0  0  0  0  0  0  0  0  0  0  0
   -0.8497    1.2102   -2.2073 H   0  0  0  0  0  0  0  0  0  0  0  0
   -2.1945   -1.2220    0.2343 H   0  0  0  0  0  0  0  0  0  0  0  0
   -2.9171   -0.0268    2.0932 H   0  0  0  0  0  0  0  0  0  0  0  0
   -6.8270    1.8610   -0.3003 H   0  0  0  0  0  0  0  0  0  0  0  0
   -5.5671    3.2885    1.2839 H   0  0  0  0  0  0  0  0  0  0  0  0
   -4.3563    2.8990    0.0258 H   0  0  0  0  0  0  0  0  0  0  0  0
   -3.2704    2.4921    2.1565 H   0  0  0  0  0  0  0  0  0  0  0  0
   -5.2382    2.3592    3.4847 H   0  0  0  0  0  0  0  0  0  0  0  0
   -4.2166    1.0826    3.8065 H   0  0  0  0  0  0  0  0  0  0  0  0
   -6.0403   -1.6865   -0.8512 H   0  0  0  0  0  0  0  0  0  0  0  0
   -7.0864   -0.3355   -1.3921 H   0  0  0  0  0  0  0  0  0  0  0  0
   -8.1755   -0.4022    0.7708 H   0  0  0  0  0  0  0  0  0  0  0  0
   -7.1918   -1.6840    1.2597 H   0  0  0  0  0  0  0  0  0  0  0  0
   -0.2561   -0.5087    1.2207 H   0  0  0  0  0  0  0  0  0  0  0  0
   -0.3045    1.6360    1.1172 H   0  0  0  0  0  0  0  0  0  0  0  0
    5.0506   -2.7014    1.4318 H   0  0  0  0  0  0  0  0  0  0  0  0
    3.8377   -1.4773    1.8208 H   0  0  0  0  0  0  0  0  0  0  0  0
    7.3576   -1.9435    1.1980 H   0  0  0  0  0  0  0  0  0  0  0  0
    7.7279   -0.4908    0.2061 H   0  0  0  0  0  0  0  0  0  0  0  0
    6.8728   -1.9004   -0.5358 H   0  0  0  0  0  0  0  0  0  0  0  0
    6.0756   -0.5396    2.6814 H   0  0  0  0  0  0  0  0  0  0  0  0
  1  2  1  0
  2  3  1  0
  3  4  1  0
  4  5  1  0
  4  6  1  0
  6  7  1  0
  7  8  1  0
  8  9  1  0
  9 10  1  0
  9 11  1  0
 11 12  1  0
 12 13  1  0
 12 14  1  0
 14 15  1  0
 15 16  1  0
 16 17  1  0
 17 18  1  0
 18 19  2  0
 19 20  1  0
 20 21  1  0
 21 16  1  0
 21 22  1  0
 18 23  1  0
 23 24  1  0
 14 25  1  0
 25  8  1  0
 25 26  1  0
  6 27  1  0
 27 28  1  0
 28 29  1  0
 29  3  1  0
 29 30  1  0
 29 31  1  0
  1 32  1  0
  1 33  1  0
  1 34  1  0
  2 35  1  0
  3 36  1  0
  4 37  1  0
  5 38  1  0
  6 39  1  0
  8 40  1  0
  9 41  1  0
 10 42  1  0
 10 43  1  0
 11 44  1  0
 11 45  1  0
 12 46  1  0
 13 47  1  0
 13 48  1  0
 14 49  1  0
 16 50  1  0
 19 51  1  0
 20 52  1  0
 20 53  1  0
 21 54  1  0
 22 55  1  0
 22 56  1  0
 23 57  1  0
 23 58  1  0
 24 59  1  0
 24 60  1  0
 25 61  1  0
 26 62  1  0
 28 63  1  0
 28 64  1  0
 30 65  1  0
 30 66  1  0
 30 67  1  0
 31 68  1  0
M  END
> <ID>
HT3834

> <Class>
0.0

> <Clusters>
277

> <Fold>
4

$$$$