
     RDKit          3D

 23 23  0  0  0  0  0  0  0  0999 V2000
    3.9778   -1.0938   -1.0904 N   0  0  0  0  0  0  0  0  0  0  0  0
    2.9649   -1.7938   -0.3645 C   0  0  0  0  0  0  0  0  0  0  0  0
    3.0043   -3.0516   -0.3100 O   0  0  0  0  0  0  0  0  0  0  0  0
    1.9337   -1.0926    0.3451 N   0  0  0  0  0  0  0  0  0  0  0  0
    1.4393    0.2026   -0.0287 C   0  0  0  0  0  0  0  0  0  0  0  0
    1.7347    0.7050   -1.1467 O   0  0  0  0  0  0  0  0  0  0  0  0
    0.4959    0.9373    0.8756 C   0  0  0  0  0  0  0  0  0  0  0  0
   -0.9258    0.7464    0.4193 C   0  0  0  0  0  0  0  0  0  0  0  0
   -1.6217    1.7963   -0.2047 C   0  0  0  0  0  0  0  0  0  0  0  0
   -2.9409    1.6118   -0.6308 C   0  0  0  0  0  0  0  0  0  0  0  0
   -3.5743    0.3812   -0.4377 C   0  0  0  0  0  0  0  0  0  0  0  0
   -2.8899   -0.6675    0.1823 C   0  0  0  0  0  0  0  0  0  0  0  0
   -1.5708   -0.4878    0.6100 C   0  0  0  0  0  0  0  0  0  0  0  0
    4.6845   -1.6263   -1.6448 H   0  0  0  0  0  0  0  0  0  0  0  0
    4.0962   -0.0614   -0.9994 H   0  0  0  0  0  0  0  0  0  0  0  0
    1.4653   -1.5908    1.1351 H   0  0  0  0  0  0  0  0  0  0  0  0
    0.7680    2.0154    0.8733 H   0  0  0  0  0  0  0  0  0  0  0  0
    0.6048    0.5797    1.9222 H   0  0  0  0  0  0  0  0  0  0  0  0
   -1.1437    2.7547   -0.3651 H   0  0  0  0  0  0  0  0  0  0  0  0
   -3.4719    2.4231   -1.1118 H   0  0  0  0  0  0  0  0  0  0  0  0
   -4.5953    0.2404   -0.7683 H   0  0  0  0  0  0  0  0  0  0  0  0
   -3.3817   -1.6200    0.3319 H   0  0  0  0  0  0  0  0  0  0  0  0
   -1.0534   -1.3083    1.0910 H   0  0  0  0  0  0  0  0  0  0  0  0
  1  2  1  0
  2  3  2  0
  2  4  1  0
  4  5  1  0
  5  6  2  0
  5  7  1  0
  7  8  1  0
  8  9  2  0
  9 10  1  0
 10 11  2  0
 11 12  1  0
 12 13  2  0
 13  8  1  0
  1 14  1  0
  1 15  1  0
  4 16  1  0
  7 17  1  0
  7 18  1  0
  9 19  1  0
 10 20  1  0
 11 21  1  0
 12 22  1  0
 13 23  1  0
M  END
> <ID>
HT1640

> <Class>
0.0

> <Clusters>
246

> <Fold>
4

$$$$