
     RDKit          3D

 37 37  0  0  0  0  0  0  0  0999 V2000
    2.9122   -1.2313   -0.9261 C   0  0  0  0  0  0  0  0  0  0  0  0
    3.2538    0.1804   -0.3995 C   0  0  0  0  0  0  0  0  0  0  0  0
    3.2488    1.2016   -1.5594 C   0  0  0  0  0  0  0  0  0  0  0  0
    4.6806    0.1465    0.1885 C   0  0  0  0  0  0  0  0  0  0  0  0
    2.3241    0.6064    0.6771 N   0  0  0  0  0  0  0  0  0  0  0  0
    0.8846    0.6292    0.3332 C   0  0  0  0  0  0  0  0  0  0  0  0
    0.1019   -0.5146    1.0077 C   0  0  0  0  0  0  0  0  0  0  0  0
    0.0914   -0.3212    2.3983 O   0  0  0  0  0  0  0  0  0  0  0  0
   -1.3157   -0.5468    0.4939 C   0  0  0  0  0  0  0  0  0  0  0  0
   -1.7959   -1.6505   -0.2246 C   0  0  0  0  0  0  0  0  0  0  0  0
   -3.1142   -1.6504   -0.6814 C   0  0  0  0  0  0  0  0  0  0  0  0
   -3.9455   -0.5545   -0.4236 C   0  0  0  0  0  0  0  0  0  0  0  0
   -5.2672   -0.5505   -0.8685 O   0  0  0  0  0  0  0  0  0  0  0  0
   -3.4299    0.5405    0.2907 C   0  0  0  0  0  0  0  0  0  0  0  0
   -4.2864    1.7273    0.6138 C   0  0  0  0  0  0  0  0  0  0  0  0
   -5.1621    1.3992    1.6553 O   0  0  0  0  0  0  0  0  0  0  0  0
   -2.1428    0.5087    0.7330 N   0  0  0  0  0  0  0  0  0  0  0  0
    1.9270   -1.2507   -1.4360 H   0  0  0  0  0  0  0  0  0  0  0  0
    3.6744   -1.5660   -1.6627 H   0  0  0  0  0  0  0  0  0  0  0  0
    2.8925   -1.9621   -0.0897 H   0  0  0  0  0  0  0  0  0  0  0  0
    4.0764    0.9905   -2.2709 H   0  0  0  0  0  0  0  0  0  0  0  0
    2.3079    1.1668   -2.1444 H   0  0  0  0  0  0  0  0  0  0  0  0
    3.3805    2.2319   -1.1648 H   0  0  0  0  0  0  0  0  0  0  0  0
    4.7470   -0.5925    1.0160 H   0  0  0  0  0  0  0  0  0  0  0  0
    4.9557    1.1446    0.5931 H   0  0  0  0  0  0  0  0  0  0  0  0
    5.4264   -0.1367   -0.5859 H   0  0  0  0  0  0  0  0  0  0  0  0
    2.4878    0.0331    1.5387 H   0  0  0  0  0  0  0  0  0  0  0  0
    0.7122    0.5904   -0.7608 H   0  0  0  0  0  0  0  0  0  0  0  0
    0.4673    1.6001    0.6771 H   0  0  0  0  0  0  0  0  0  0  0  0
    0.6140   -1.4753    0.7711 H   0  0  0  0  0  0  0  0  0  0  0  0
   -0.1888   -1.1830    2.8047 H   0  0  0  0  0  0  0  0  0  0  0  0
   -1.1588   -2.5020   -0.4288 H   0  0  0  0  0  0  0  0  0  0  0  0
   -3.4895   -2.5029   -1.2331 H   0  0  0  0  0  0  0  0  0  0  0  0
   -5.6552   -1.3317   -1.3842 H   0  0  0  0  0  0  0  0  0  0  0  0
   -3.6431    2.5825    0.9200 H   0  0  0  0  0  0  0  0  0  0  0  0
   -4.8624    2.0322   -0.2884 H   0  0  0  0  0  0  0  0  0  0  0  0
   -5.7089    2.2108    1.8207 H   0  0  0  0  0  0  0  0  0  0  0  0
  1  2  1  0
  2  3  1  0
  2  4  1  0
  2  5  1  0
  5  6  1  0
  6  7  1  0
  7  8  1  0
  7  9  1  0
  9 10  2  0
 10 11  1  0
 11 12  2  0
 12 13  1  0
 12 14  1  0
 14 15  1  0
 15 16  1  0
 14 17  2  0
 17  9  1  0
  1 18  1  0
  1 19  1  0
  1 20  1  0
  3 21  1  0
  3 22  1  0
  3 23  1  0
  4 24  1  0
  4 25  1  0
  4 26  1  0
  5 27  1  0
  6 28  1  0
  6 29  1  0
  7 30  1  0
  8 31  1  0
 10 32  1  0
 11 33  1  0
 13 34  1  0
 15 35  1  0
 15 36  1  0
 16 37  1  0
M  END
> <ID>
HT1689

> <Class>
0.0

> <Clusters>
8

> <Fold>
4

$$$$