
     RDKit          3D

 55 55  0  0  0  0  0  0  0  0999 V2000
   -4.4364   -5.4959    0.1186 C   0  0  0  0  0  0  0  0  0  0  0  0
   -4.2881   -4.1156    0.5939 N   0  0  0  0  0  0  0  0  0  0  0  0
   -5.1941   -3.5706    1.6079 C   0  0  0  0  0  0  0  0  0  0  0  0
   -3.2396   -3.2842    0.0636 C   0  0  0  0  0  0  0  0  0  0  0  0
   -2.4418   -3.7574   -0.7926 O   0  0  0  0  0  0  0  0  0  0  0  0
   -3.1427   -1.9425    0.4677 O   0  0  0  0  0  0  0  0  0  0  0  0
   -2.0851   -1.0661    0.1747 C   0  0  0  0  0  0  0  0  0  0  0  0
   -2.3608    0.3038    0.1075 C   0  0  0  0  0  0  0  0  0  0  0  0
   -1.3505    1.2235   -0.2243 C   0  0  0  0  0  0  0  0  0  0  0  0
   -1.5892    2.6035   -0.3041 O   0  0  0  0  0  0  0  0  0  0  0  0
   -2.8154    3.1964   -0.6596 C   0  0  0  0  0  0  0  0  0  0  0  0
   -3.7121    2.5218   -1.2433 O   0  0  0  0  0  0  0  0  0  0  0  0
   -3.0366    4.5912   -0.3894 N   0  0  0  0  0  0  0  0  0  0  0  0
   -4.3412    5.1941   -0.6655 C   0  0  0  0  0  0  0  0  0  0  0  0
   -1.9491    5.3843    0.1960 C   0  0  0  0  0  0  0  0  0  0  0  0
   -0.0490    0.7632   -0.4441 C   0  0  0  0  0  0  0  0  0  0  0  0
    0.2647   -0.6038   -0.3200 C   0  0  0  0  0  0  0  0  0  0  0  0
   -0.7654   -1.5130   -0.0181 C   0  0  0  0  0  0  0  0  0  0  0  0
    1.6647   -1.1259   -0.6037 C   0  0  0  0  0  0  0  0  0  0  0  0
    1.8716   -1.2412   -1.9915 O   0  0  0  0  0  0  0  0  0  0  0  0
    2.7807   -0.2805    0.0494 C   0  0  0  0  0  0  0  0  0  0  0  0
    4.0715   -0.9823   -0.0772 N   0  0  0  0  0  0  0  0  0  0  0  0
    5.2783   -0.1301    0.0988 C   0  0  0  0  0  0  0  0  0  0  0  0
    5.2129    0.7077    1.4003 C   0  0  0  0  0  0  0  0  0  0  0  0
    5.4663    0.7981   -1.1259 C   0  0  0  0  0  0  0  0  0  0  0  0
    6.5094   -1.0568    0.1783 C   0  0  0  0  0  0  0  0  0  0  0  0
   -5.2970   -6.0077    0.6000 H   0  0  0  0  0  0  0  0  0  0  0  0
   -3.5159   -6.0710    0.3510 H   0  0  0  0  0  0  0  0  0  0  0  0
   -4.6060   -5.4957   -0.9810 H   0  0  0  0  0  0  0  0  0  0  0  0
   -4.6127   -3.2668    2.5036 H   0  0  0  0  0  0  0  0  0  0  0  0
   -5.9521   -4.3197    1.9250 H   0  0  0  0  0  0  0  0  0  0  0  0
   -5.7272   -2.6848    1.1983 H   0  0  0  0  0  0  0  0  0  0  0  0
   -3.3651    0.6410    0.3266 H   0  0  0  0  0  0  0  0  0  0  0  0
   -4.3695    6.2603   -0.3510 H   0  0  0  0  0  0  0  0  0  0  0  0
   -4.5551    5.1405   -1.7602 H   0  0  0  0  0  0  0  0  0  0  0  0
   -5.1383    4.6443   -0.1142 H   0  0  0  0  0  0  0  0  0  0  0  0
   -2.2506    6.4417    0.3498 H   0  0  0  0  0  0  0  0  0  0  0  0
   -1.6568    4.9584    1.1837 H   0  0  0  0  0  0  0  0  0  0  0  0
   -1.0676    5.3692   -0.4812 H   0  0  0  0  0  0  0  0  0  0  0  0
    0.7111    1.4832   -0.7133 H   0  0  0  0  0  0  0  0  0  0  0  0
   -0.5260   -2.5619    0.0923 H   0  0  0  0  0  0  0  0  0  0  0  0
    1.7495   -2.1489   -0.1702 H   0  0  0  0  0  0  0  0  0  0  0  0
    1.7913   -0.3338   -2.3889 H   0  0  0  0  0  0  0  0  0  0  0  0
    2.8216    0.7141   -0.4431 H   0  0  0  0  0  0  0  0  0  0  0  0
    2.5380   -0.1296    1.1290 H   0  0  0  0  0  0  0  0  0  0  0  0
    4.0795   -1.7411    0.6457 H   0  0  0  0  0  0  0  0  0  0  0  0
    5.0171    0.0481    2.2779 H   0  0  0  0  0  0  0  0  0  0  0  0
    4.4102    1.4745    1.3463 H   0  0  0  0  0  0  0  0  0  0  0  0
    6.1752    1.2453    1.5701 H   0  0  0  0  0  0  0  0  0  0  0  0
    5.3986    0.2089   -2.0669 H   0  0  0  0  0  0  0  0  0  0  0  0
    4.7029    1.6005   -1.1606 H   0  0  0  0  0  0  0  0  0  0  0  0
    6.4593    1.2992   -1.0910 H   0  0  0  0  0  0  0  0  0  0  0  0
    7.4487   -0.4650    0.2939 H   0  0  0  0  0  0  0  0  0  0  0  0
    6.4239   -1.7507    1.0519 H   0  0  0  0  0  0  0  0  0  0  0  0
    6.5905   -1.6742   -0.7495 H   0  0  0  0  0  0  0  0  0  0  0  0
  1  2  1  0
  2  3  1  0
  2  4  1  0
  4  5  2  0
  4  6  1  0
  6  7  1  0
  7  8  2  0
  8  9  1  0
  9 10  1  0
 10 11  1  0
 11 12  2  0
 11 13  1  0
 13 14  1  0
 13 15  1  0
  9 16  2  0
 16 17  1  0
 17 18  2  0
 18  7  1  0
 17 19  1  0
 19 20  1  0
 19 21  1  0
 21 22  1  0
 22 23  1  0
 23 24  1  0
 23 25  1  0
 23 26  1  0
  1 27  1  0
  1 28  1  0
  1 29  1  0
  3 30  1  0
  3 31  1  0
  3 32  1  0
  8 33  1  0
 14 34  1  0
 14 35  1  0
 14 36  1  0
 15 37  1  0
 15 38  1  0
 15 39  1  0
 16 40  1  0
 18 41  1  0
 19 42  1  0
 20 43  1  0
 21 44  1  0
 21 45  1  0
 22 46  1  0
 24 47  1  0
 24 48  1  0
 24 49  1  0
 25 50  1  0
 25 51  1  0
 25 52  1  0
 26 53  1  0
 26 54  1  0
 26 55  1  0
M  END
> <ID>
HT0225

> <Class>
0.0

> <Clusters>
8

> <Fold>
4

$$$$