
     RDKit          3D

 28 28  0  0  0  0  0  0  0  0999 V2000
   -2.7948   -2.0282   -1.1805 C   0  0  0  0  0  0  0  0  0  0  0  0
   -2.5709   -1.0572   -0.1158 N   0  0  0  0  0  0  0  0  0  0  0  0
   -1.5710   -0.0196   -0.2010 C   0  0  0  0  0  0  0  0  0  0  0  0
   -1.3747    0.8029    0.7914 N   0  0  0  0  0  0  0  0  0  0  0  0
   -2.0914    0.7944    2.0608 C   0  0  0  0  0  0  0  0  0  0  0  0
   -0.7697    0.1193   -1.3899 N   0  0  0  0  0  0  0  0  0  0  0  0
    0.3144    1.0953   -1.5016 C   0  0  0  0  0  0  0  0  0  0  0  0
    1.4621    0.7113   -0.6063 C   0  0  0  0  0  0  0  0  0  0  0  0
    2.1514   -0.4932   -0.8249 C   0  0  0  0  0  0  0  0  0  0  0  0
    3.2141   -0.8579    0.0075 C   0  0  0  0  0  0  0  0  0  0  0  0
    3.5967   -0.0234    1.0612 C   0  0  0  0  0  0  0  0  0  0  0  0
    2.9178    1.1778    1.2837 C   0  0  0  0  0  0  0  0  0  0  0  0
    1.8548    1.5468    0.4533 C   0  0  0  0  0  0  0  0  0  0  0  0
   -3.1237   -1.5078   -2.1044 H   0  0  0  0  0  0  0  0  0  0  0  0
   -1.8616   -2.5974   -1.3758 H   0  0  0  0  0  0  0  0  0  0  0  0
   -3.5886   -2.7436   -0.8781 H   0  0  0  0  0  0  0  0  0  0  0  0
   -3.1650   -1.1507    0.7374 H   0  0  0  0  0  0  0  0  0  0  0  0
   -1.6980    1.6085    2.7034 H   0  0  0  0  0  0  0  0  0  0  0  0
   -1.9352   -0.1740    2.5816 H   0  0  0  0  0  0  0  0  0  0  0  0
   -3.1746    0.9701    1.8899 H   0  0  0  0  0  0  0  0  0  0  0  0
   -0.9701   -0.4689   -2.2281 H   0  0  0  0  0  0  0  0  0  0  0  0
   -0.0736    2.1079   -1.2557 H   0  0  0  0  0  0  0  0  0  0  0  0
    0.6768    1.1290   -2.5519 H   0  0  0  0  0  0  0  0  0  0  0  0
    1.8632   -1.1485   -1.6377 H   0  0  0  0  0  0  0  0  0  0  0  0
    3.7407   -1.7878   -0.1642 H   0  0  0  0  0  0  0  0  0  0  0  0
    4.4191   -0.3073    1.7050 H   0  0  0  0  0  0  0  0  0  0  0  0
    3.2149    1.8231    2.1003 H   0  0  0  0  0  0  0  0  0  0  0  0
    1.3367    2.4790    0.6405 H   0  0  0  0  0  0  0  0  0  0  0  0
  1  2  1  0
  2  3  1  0
  3  4  2  3
  4  5  1  0
  3  6  1  0
  6  7  1  0
  7  8  1  0
  8  9  2  0
  9 10  1  0
 10 11  2  0
 11 12  1  0
 12 13  2  0
 13  8  1  0
  1 14  1  0
  1 15  1  0
  1 16  1  0
  2 17  1  0
  5 18  1  0
  5 19  1  0
  5 20  1  0
  6 21  1  0
  7 22  1  0
  7 23  1  0
  9 24  1  0
 10 25  1  0
 11 26  1  0
 12 27  1  0
 13 28  1  0
M  END
> <ID>
HT0278

> <Class>
0.0

> <Clusters>
164

> <Fold>
4

$$$$