
     RDKit          3D

 26 26  0  0  0  0  0  0  0  0999 V2000
   -1.7249    0.8293   -1.2004 C   0  0  0  0  0  0  0  0  0  0  0  0
   -1.6398   -0.0115    0.0927 C   0  0  0  0  0  0  0  0  0  0  0  0
   -2.9092   -0.8909    0.1750 C   0  0  0  0  0  0  0  0  0  0  0  0
   -1.5923    0.8692    1.2675 N   0  0  0  0  0  0  0  0  0  0  0  0
   -0.3946   -0.9486    0.0627 C   0  0  0  0  0  0  0  0  0  0  0  0
    1.0122   -0.3496    0.0495 C   0  0  0  0  0  0  0  0  0  0  0  0
    1.2817    1.0218    0.2654 C   0  0  0  0  0  0  0  0  0  0  0  0
    2.5926    1.5051    0.2517 C   0  0  0  0  0  0  0  0  0  0  0  0
    3.6597    0.6367    0.0356 C   0  0  0  0  0  0  0  0  0  0  0  0
    3.4211   -0.7217   -0.1612 C   0  0  0  0  0  0  0  0  0  0  0  0
    2.1132   -1.2204   -0.1504 C   0  0  0  0  0  0  0  0  0  0  0  0
    1.8976   -2.9545   -0.3830 Cl  0  0  0  0  0  0  0  0  0  0  0  0
   -1.7808    0.1675   -2.0916 H   0  0  0  0  0  0  0  0  0  0  0  0
   -0.8496    1.4938   -1.3282 H   0  0  0  0  0  0  0  0  0  0  0  0
   -2.6334    1.4691   -1.1873 H   0  0  0  0  0  0  0  0  0  0  0  0
   -3.8239   -0.2598    0.1938 H   0  0  0  0  0  0  0  0  0  0  0  0
   -2.8993   -1.5091    1.0985 H   0  0  0  0  0  0  0  0  0  0  0  0
   -2.9753   -1.5731   -0.7002 H   0  0  0  0  0  0  0  0  0  0  0  0
   -2.4601    1.4528    1.3060 H   0  0  0  0  0  0  0  0  0  0  0  0
   -1.5713    0.2893    2.1384 H   0  0  0  0  0  0  0  0  0  0  0  0
   -0.4469   -1.6304    0.9403 H   0  0  0  0  0  0  0  0  0  0  0  0
   -0.4923   -1.5895   -0.8417 H   0  0  0  0  0  0  0  0  0  0  0  0
    0.5035    1.7411    0.4516 H   0  0  0  0  0  0  0  0  0  0  0  0
    2.7813    2.5587    0.4138 H   0  0  0  0  0  0  0  0  0  0  0  0
    4.6735    1.0157    0.0273 H   0  0  0  0  0  0  0  0  0  0  0  0
    4.2574   -1.3910   -0.3189 H   0  0  0  0  0  0  0  0  0  0  0  0
  1  2  1  0
  2  3  1  0
  2  4  1  0
  2  5  1  0
  5  6  1  0
  6  7  2  0
  7  8  1  0
  8  9  2  0
  9 10  1  0
 10 11  2  0
 11  6  1  0
 11 12  1  0
  1 13  1  0
  1 14  1  0
  1 15  1  0
  3 16  1  0
  3 17  1  0
  3 18  1  0
  4 19  1  0
  4 20  1  0
  5 21  1  0
  5 22  1  0
  7 23  1  0
  8 24  1  0
  9 25  1  0
 10 26  1  0
M  END
> <ID>
HT2795

> <Class>
0.0

> <Clusters>
54

> <Fold>
4

$$$$