
     RDKit          3D

 26 26  0  0  0  0  0  0  0  0999 V2000
   -3.3889    0.8060    1.2500 C   0  0  0  0  0  0  0  0  0  0  0  0
   -2.9569    0.1122    0.0341 N   0  0  0  0  0  0  0  0  0  0  0  0
   -3.9408   -0.1491   -1.0182 C   0  0  0  0  0  0  0  0  0  0  0  0
   -1.5909   -0.3079   -0.1447 C   0  0  0  0  0  0  0  0  0  0  0  0
   -1.2552   -0.9125   -1.2006 O   0  0  0  0  0  0  0  0  0  0  0  0
   -0.6522   -0.0963    0.8755 O   0  0  0  0  0  0  0  0  0  0  0  0
    0.7402   -0.1833    0.7293 C   0  0  0  0  0  0  0  0  0  0  0  0
    1.5089   -0.5438    1.8372 C   0  0  0  0  0  0  0  0  0  0  0  0
    2.8942   -0.6405    1.7255 C   0  0  0  0  0  0  0  0  0  0  0  0
    3.5056   -0.3548    0.5042 C   0  0  0  0  0  0  0  0  0  0  0  0
    2.7577    0.0396   -0.5695 N   0  0  0  0  0  0  0  0  0  0  0  0
    3.4156    0.3180   -1.8483 C   0  0  0  0  0  0  0  0  0  0  0  0
    1.3952    0.1176   -0.4788 C   0  0  0  0  0  0  0  0  0  0  0  0
   -3.7959    1.8044    0.9844 H   0  0  0  0  0  0  0  0  0  0  0  0
   -4.1809    0.2139    1.7551 H   0  0  0  0  0  0  0  0  0  0  0  0
   -2.5543    0.9520    1.9659 H   0  0  0  0  0  0  0  0  0  0  0  0
   -4.0222   -1.2428   -1.1928 H   0  0  0  0  0  0  0  0  0  0  0  0
   -4.9436    0.2362   -0.7334 H   0  0  0  0  0  0  0  0  0  0  0  0
   -3.6268    0.3514   -1.9585 H   0  0  0  0  0  0  0  0  0  0  0  0
    1.0292   -0.7641    2.7825 H   0  0  0  0  0  0  0  0  0  0  0  0
    3.4909   -0.9376    2.5783 H   0  0  0  0  0  0  0  0  0  0  0  0
    4.5828   -0.4420    0.4242 H   0  0  0  0  0  0  0  0  0  0  0  0
    2.8627    1.0987   -2.4144 H   0  0  0  0  0  0  0  0  0  0  0  0
    4.4504    0.6916   -1.6889 H   0  0  0  0  0  0  0  0  0  0  0  0
    3.4553   -0.6109   -2.4554 H   0  0  0  0  0  0  0  0  0  0  0  0
    0.8200    0.4438   -1.3359 H   0  0  0  0  0  0  0  0  0  0  0  0
  1  2  1  0
  2  3  1  0
  2  4  1  0
  4  5  2  0
  4  6  1  0
  6  7  1  0
  7  8  2  0
  8  9  1  0
  9 10  2  0
 10 11  1  0
 11 12  1  0
 11 13  2  0
 13  7  1  0
  1 14  1  0
  1 15  1  0
  1 16  1  0
  3 17  1  0
  3 18  1  0
  3 19  1  0
  8 20  1  0
  9 21  1  0
 10 22  1  0
 12 23  1  0
 12 24  1  0
 12 25  1  0
 13 26  1  0
M  CHG  1  11   1
M  END
> <ID>
HT1776

> <Class>
0.0

> <Clusters>
177

> <Fold>
4

$$$$