
     RDKit          3D

 19 19  0  0  0  0  0  0  0  0999 V2000
   -0.7693   -2.0818   -0.2515 C   0  0  0  0  0  0  0  0  0  0  0  0
   -0.8356   -0.6155   -0.1595 N   0  0  0  0  0  0  0  0  0  0  0  0
   -2.0660   -0.0287   -0.0186 C   0  0  0  0  0  0  0  0  0  0  0  0
   -2.1942    1.3560    0.0739 C   0  0  0  0  0  0  0  0  0  0  0  0
   -1.0575    2.1521    0.0225 C   0  0  0  0  0  0  0  0  0  0  0  0
    0.1939    1.5611   -0.1205 C   0  0  0  0  0  0  0  0  0  0  0  0
    0.3064    0.1594   -0.2127 C   0  0  0  0  0  0  0  0  0  0  0  0
    1.6560   -0.4511   -0.3653 C   0  0  0  0  0  0  0  0  0  0  0  0
    2.7214    0.2833   -0.4142 N   0  0  0  0  0  0  0  0  0  0  0  0
    3.9627   -0.2915   -0.5553 O   0  0  0  0  0  0  0  0  0  0  0  0
   -1.7757   -2.5503   -0.1920 H   0  0  0  0  0  0  0  0  0  0  0  0
   -0.3194   -2.3803   -1.2222 H   0  0  0  0  0  0  0  0  0  0  0  0
   -0.1630   -2.4866    0.5866 H   0  0  0  0  0  0  0  0  0  0  0  0
   -2.9669   -0.6297    0.0239 H   0  0  0  0  0  0  0  0  0  0  0  0
   -3.1716    1.8078    0.1850 H   0  0  0  0  0  0  0  0  0  0  0  0
   -1.1453    3.2287    0.0934 H   0  0  0  0  0  0  0  0  0  0  0  0
    1.0675    2.1998   -0.1585 H   0  0  0  0  0  0  0  0  0  0  0  0
    1.7677   -1.5245   -0.4381 H   0  0  0  0  0  0  0  0  0  0  0  0
    4.7890    0.2917   -0.5925 H   0  0  0  0  0  0  0  0  0  0  0  0
  1  2  1  0
  2  3  2  0
  3  4  1  0
  4  5  2  0
  5  6  1  0
  6  7  2  0
  7  2  1  0
  7  8  1  0
  8  9  2  3
  9 10  1  0
  1 11  1  0
  1 12  1  0
  1 13  1  0
  3 14  1  0
  4 15  1  0
  5 16  1  0
  6 17  1  0
  8 18  1  0
 10 19  1  0
M  CHG  1   2   1
M  END
> <ID>
HT1719

> <Class>
0.0

> <Clusters>
246

> <Fold>
4

$$$$