
     RDKit          3D

 24 24  0  0  0  0  0  0  0  0999 V2000
   -3.5112    0.8869   -1.0883 C   0  0  0  0  0  0  0  0  0  0  0  0
   -2.4984    0.1229   -0.3521 N   0  0  0  0  0  0  0  0  0  0  0  0
   -2.9443   -0.7437    0.7413 C   0  0  0  0  0  0  0  0  0  0  0  0
   -1.0919    0.2535   -0.6579 C   0  0  0  0  0  0  0  0  0  0  0  0
   -0.7118    1.1001   -1.5128 O   0  0  0  0  0  0  0  0  0  0  0  0
   -0.1180   -0.5915   -0.0184 N   0  0  0  0  0  0  0  0  0  0  0  0
    1.2887   -0.2950    0.0280 C   0  0  0  0  0  0  0  0  0  0  0  0
    1.7576    1.0302    0.1066 C   0  0  0  0  0  0  0  0  0  0  0  0
    3.1302    1.2897    0.1751 C   0  0  0  0  0  0  0  0  0  0  0  0
    4.0442    0.2331    0.1788 C   0  0  0  0  0  0  0  0  0  0  0  0
    3.5870   -1.0858    0.1225 C   0  0  0  0  0  0  0  0  0  0  0  0
    2.2154   -1.3497    0.0548 C   0  0  0  0  0  0  0  0  0  0  0  0
   -3.0675    1.4926   -1.9051 H   0  0  0  0  0  0  0  0  0  0  0  0
   -4.0401    1.5723   -0.3929 H   0  0  0  0  0  0  0  0  0  0  0  0
   -4.2476    0.1892   -1.5401 H   0  0  0  0  0  0  0  0  0  0  0  0
   -2.4089   -0.4776    1.6774 H   0  0  0  0  0  0  0  0  0  0  0  0
   -4.0350   -0.6303    0.9225 H   0  0  0  0  0  0  0  0  0  0  0  0
   -2.7482   -1.8057    0.4851 H   0  0  0  0  0  0  0  0  0  0  0  0
   -0.4267   -1.5195    0.3470 H   0  0  0  0  0  0  0  0  0  0  0  0
    1.0668    1.8621    0.1392 H   0  0  0  0  0  0  0  0  0  0  0  0
    3.4849    2.3106    0.2341 H   0  0  0  0  0  0  0  0  0  0  0  0
    5.1060    0.4360    0.2334 H   0  0  0  0  0  0  0  0  0  0  0  0
    4.2952   -1.9042    0.1336 H   0  0  0  0  0  0  0  0  0  0  0  0
    1.8738   -2.3764    0.0137 H   0  0  0  0  0  0  0  0  0  0  0  0
  1  2  1  0
  2  3  1  0
  2  4  1  0
  4  5  2  0
  4  6  1  0
  6  7  1  0
  7  8  2  0
  8  9  1  0
  9 10  2  0
 10 11  1  0
 11 12  2  0
 12  7  1  0
  1 13  1  0
  1 14  1  0
  1 15  1  0
  3 16  1  0
  3 17  1  0
  3 18  1  0
  6 19  1  0
  8 20  1  0
  9 21  1  0
 10 22  1  0
 11 23  1  0
 12 24  1  0
M  END
> <ID>
HT2692

> <Class>
0.0

> <Clusters>
164

> <Fold>
4

$$$$