
     RDKit          3D

 34 34  0  0  0  0  0  0  0  0999 V2000
    3.7692    0.8233   -0.1109 C   0  0  0  0  0  0  0  0  0  0  0  0
    2.2799    0.9625    0.1960 C   0  0  0  0  0  0  0  0  0  0  0  0
    1.6011   -0.4174    0.2549 C   0  0  0  0  0  0  0  0  0  0  0  0
    0.1029   -0.4434    0.6918 C   0  0  0  0  0  0  0  0  0  0  0  0
   -0.1366    0.3086    2.0192 C   0  0  0  0  0  0  0  0  0  0  0  0
   -0.9745   -0.2029   -0.4467 C   0  0  0  0  0  0  0  0  0  0  0  0
   -0.9237    1.2037   -1.1479 C   0  0  0  0  0  0  0  0  0  0  0  0
   -0.9997    2.4564   -0.2622 C   0  0  0  0  0  0  0  0  0  0  0  0
   -0.7520   -1.2794   -1.5182 C   0  0  0  0  0  0  0  0  0  0  0  0
   -0.1252   -1.0174   -2.5817 O   0  0  0  0  0  0  0  0  0  0  0  0
   -1.1953   -2.6237   -1.2968 N   0  0  0  0  0  0  0  0  0  0  0  0
   -2.1822   -2.8961   -0.3037 C   0  0  0  0  0  0  0  0  0  0  0  0
   -2.5371   -4.0815   -0.0697 O   0  0  0  0  0  0  0  0  0  0  0  0
   -2.7956   -1.8118    0.3899 N   0  0  0  0  0  0  0  0  0  0  0  0
   -2.3724   -0.4695    0.1271 C   0  0  0  0  0  0  0  0  0  0  0  0
   -3.1634    0.4740    0.3946 O   0  0  0  0  0  0  0  0  0  0  0  0
    4.2760    0.2381    0.6860 H   0  0  0  0  0  0  0  0  0  0  0  0
    4.2350    1.8302   -0.1601 H   0  0  0  0  0  0  0  0  0  0  0  0
    3.9166    0.3165   -1.0885 H   0  0  0  0  0  0  0  0  0  0  0  0
    2.1802    1.4911    1.1662 H   0  0  0  0  0  0  0  0  0  0  0  0
    1.8355    1.5837   -0.6011 H   0  0  0  0  0  0  0  0  0  0  0  0
    2.1688   -1.0350    0.9869 H   0  0  0  0  0  0  0  0  0  0  0  0
    1.7267   -0.9225   -0.7246 H   0  0  0  0  0  0  0  0  0  0  0  0
   -0.0488   -1.5067    0.9910 H   0  0  0  0  0  0  0  0  0  0  0  0
    0.0273    1.3956    1.9369 H   0  0  0  0  0  0  0  0  0  0  0  0
    0.5639   -0.0727    2.7928 H   0  0  0  0  0  0  0  0  0  0  0  0
   -1.1649    0.1348    2.3974 H   0  0  0  0  0  0  0  0  0  0  0  0
   -0.0138    1.2963   -1.7748 H   0  0  0  0  0  0  0  0  0  0  0  0
   -1.7742    1.2551   -1.8644 H   0  0  0  0  0  0  0  0  0  0  0  0
   -1.3297    3.3174   -0.8812 H   0  0  0  0  0  0  0  0  0  0  0  0
   -0.0033    2.7213    0.1394 H   0  0  0  0  0  0  0  0  0  0  0  0
   -1.7124    2.3538    0.5768 H   0  0  0  0  0  0  0  0  0  0  0  0
   -0.8521   -3.3944   -1.9133 H   0  0  0  0  0  0  0  0  0  0  0  0
   -3.6261   -1.9878    0.9989 H   0  0  0  0  0  0  0  0  0  0  0  0
  1  2  1  0
  2  3  1  0
  3  4  1  0
  4  5  1  0
  4  6  1  0
  6  7  1  0
  7  8  1  0
  6  9  1  0
  9 10  2  0
  9 11  1  0
 11 12  1  0
 12 13  2  0
 12 14  1  0
 14 15  1  0
 15  6  1  0
 15 16  2  0
  1 17  1  0
  1 18  1  0
  1 19  1  0
  2 20  1  0
  2 21  1  0
  3 22  1  0
  3 23  1  0
  4 24  1  0
  5 25  1  0
  5 26  1  0
  5 27  1  0
  7 28  1  0
  7 29  1  0
  8 30  1  0
  8 31  1  0
  8 32  1  0
 11 33  1  0
 14 34  1  0
M  END
> <ID>
HT1623

> <Class>
0.0

> <Clusters>
227

> <Fold>
4

$$$$