
     RDKit          3D

 51 54  0  0  0  0  0  0  0  0999 V2000
    0.0679    1.5062    1.2717 C   0  0  0  0  0  0  0  0  0  0  0  0
   -0.4319    0.3564    0.4465 C   0  0  0  0  0  0  0  0  0  0  0  0
    0.3242   -0.6189   -0.1975 C   0  0  0  0  0  0  0  0  0  0  0  0
   -0.4897   -1.5964   -0.6436 N   0  0  0  0  0  0  0  0  0  0  0  0
   -1.7324   -1.2700   -0.3269 N   0  0  0  0  0  0  0  0  0  0  0  0
   -2.8597   -2.0912   -0.6627 C   0  0  0  0  0  0  0  0  0  0  0  0
   -2.9247   -3.4013   -0.1667 C   0  0  0  0  0  0  0  0  0  0  0  0
   -4.0224   -4.2143   -0.4598 C   0  0  0  0  0  0  0  0  0  0  0  0
   -5.0589   -3.7289   -1.2620 C   0  0  0  0  0  0  0  0  0  0  0  0
   -6.4364   -4.7508   -1.6292 Cl  0  0  0  0  0  0  0  0  0  0  0  0
   -4.9914   -2.4322   -1.7811 C   0  0  0  0  0  0  0  0  0  0  0  0
   -3.8945   -1.6116   -1.4918 C   0  0  0  0  0  0  0  0  0  0  0  0
   -3.8143   -0.0188   -2.2336 Cl  0  0  0  0  0  0  0  0  0  0  0  0
   -1.7397   -0.0984    0.3503 C   0  0  0  0  0  0  0  0  0  0  0  0
   -2.9375    0.5387    0.9443 C   0  0  0  0  0  0  0  0  0  0  0  0
   -3.8495   -0.2190    1.6977 C   0  0  0  0  0  0  0  0  0  0  0  0
   -4.9885    0.3834    2.2400 C   0  0  0  0  0  0  0  0  0  0  0  0
   -5.2250    1.7467    2.0373 C   0  0  0  0  0  0  0  0  0  0  0  0
   -6.6554    2.5002    2.7172 Cl  0  0  0  0  0  0  0  0  0  0  0  0
   -4.3192    2.5084    1.2925 C   0  0  0  0  0  0  0  0  0  0  0  0
   -3.1797    1.9085    0.7485 C   0  0  0  0  0  0  0  0  0  0  0  0
    1.7897   -0.6795   -0.3405 C   0  0  0  0  0  0  0  0  0  0  0  0
    2.3457   -1.8027   -0.4737 O   0  0  0  0  0  0  0  0  0  0  0  0
    2.5851    0.5093   -0.3680 N   0  0  0  0  0  0  0  0  0  0  0  0
    3.9879    0.4232   -0.2808 N   0  0  0  0  0  0  0  0  0  0  0  0
    4.4339    1.1827    0.9056 C   0  0  0  0  0  0  0  0  0  0  0  0
    5.9550    1.4562    0.8929 C   0  0  0  0  0  0  0  0  0  0  0  0
    6.6827    0.5693   -0.1215 C   0  0  0  0  0  0  0  0  0  0  0  0
    6.0968    0.7467   -1.5327 C   0  0  0  0  0  0  0  0  0  0  0  0
    4.5730    0.9729   -1.5132 C   0  0  0  0  0  0  0  0  0  0  0  0
   -0.6847    1.8045    2.0302 H   0  0  0  0  0  0  0  0  0  0  0  0
    0.9928    1.2152    1.8123 H   0  0  0  0  0  0  0  0  0  0  0  0
    0.2755    2.3757    0.6150 H   0  0  0  0  0  0  0  0  0  0  0  0
   -2.1307   -3.7836    0.4626 H   0  0  0  0  0  0  0  0  0  0  0  0
   -4.0670   -5.2199   -0.0615 H   0  0  0  0  0  0  0  0  0  0  0  0
   -5.7868   -2.0656   -2.4179 H   0  0  0  0  0  0  0  0  0  0  0  0
   -3.6746   -1.2720    1.8777 H   0  0  0  0  0  0  0  0  0  0  0  0
   -5.6845   -0.2097    2.8195 H   0  0  0  0  0  0  0  0  0  0  0  0
   -4.4989    3.5636    1.1309 H   0  0  0  0  0  0  0  0  0  0  0  0
   -2.4956    2.5081    0.1609 H   0  0  0  0  0  0  0  0  0  0  0  0
    2.1268    1.4378   -0.5106 H   0  0  0  0  0  0  0  0  0  0  0  0
    4.1825    0.5921    1.8133 H   0  0  0  0  0  0  0  0  0  0  0  0
    3.8959    2.1556    0.9810 H   0  0  0  0  0  0  0  0  0  0  0  0
    6.1363    2.5216    0.6288 H   0  0  0  0  0  0  0  0  0  0  0  0
    6.3782    1.2856    1.9065 H   0  0  0  0  0  0  0  0  0  0  0  0
    7.7657    0.8189   -0.1313 H   0  0  0  0  0  0  0  0  0  0  0  0
    6.5813   -0.4938    0.1904 H   0  0  0  0  0  0  0  0  0  0  0  0
    6.5847    1.6131   -2.0303 H   0  0  0  0  0  0  0  0  0  0  0  0
    6.3330   -0.1597   -2.1319 H   0  0  0  0  0  0  0  0  0  0  0  0
    4.3548    2.0631   -1.5912 H   0  0  0  0  0  0  0  0  0  0  0  0
    4.1241    0.4743   -2.4009 H   0  0  0  0  0  0  0  0  0  0  0  0
  1  2  1  0
  2  3  1  0
  3  4  2  0
  4  5  1  0
  5  6  1  0
  6  7  2  0
  7  8  1  0
  8  9  2  0
  9 10  1  0
  9 11  1  0
 11 12  2  0
 12  6  1  0
 12 13  1  0
  5 14  1  0
 14  2  2  0
 14 15  1  0
 15 16  2  0
 16 17  1  0
 17 18  2  0
 18 19  1  0
 18 20  1  0
 20 21  2  0
 21 15  1  0
  3 22  1  0
 22 23  2  0
 22 24  1  0
 24 25  1  0
 25 26  1  0
 26 27  1  0
 27 28  1  0
 28 29  1  0
 29 30  1  0
 30 25  1  0
  1 31  1  0
  1 32  1  0
  1 33  1  0
  7 34  1  0
  8 35  1  0
 11 36  1  0
 16 37  1  0
 17 38  1  0
 20 39  1  0
 21 40  1  0
 24 41  1  0
 26 42  1  0
 26 43  1  0
 27 44  1  0
 27 45  1  0
 28 46  1  0
 28 47  1  0
 29 48  1  0
 29 49  1  0
 30 50  1  0
 30 51  1  0
M  END
> <ID>
HT1828

> <Class>
0.0

> <Clusters>
230

> <Fold>
4

$$$$