
     RDKit          3D

 24 26  0  0  0  0  0  0  0  0999 V2000
   -2.0535   -2.1799    0.4808 C   0  0  0  0  0  0  0  0  0  0  0  0
   -1.1177   -1.3260    1.1283 O   0  0  0  0  0  0  0  0  0  0  0  0
   -0.4815   -0.2760    0.4584 C   0  0  0  0  0  0  0  0  0  0  0  0
    0.9178   -0.2949    0.2449 C   0  0  0  0  0  0  0  0  0  0  0  0
    1.7174   -1.3555    0.6887 C   0  0  0  0  0  0  0  0  0  0  0  0
    3.0896   -1.3321    0.4445 C   0  0  0  0  0  0  0  0  0  0  0  0
    3.6410   -0.2465   -0.2430 C   0  0  0  0  0  0  0  0  0  0  0  0
    4.8784   -0.2115   -0.4712 O   0  0  0  0  0  0  0  0  0  0  0  0
    2.8674    0.7520   -0.6593 O   0  0  0  0  0  0  0  0  0  0  0  0
    1.5538    0.7770   -0.4509 C   0  0  0  0  0  0  0  0  0  0  0  0
    0.7975    1.8659   -0.9188 C   0  0  0  0  0  0  0  0  0  0  0  0
   -0.5717    1.8652   -0.6719 C   0  0  0  0  0  0  0  0  0  0  0  0
   -1.4367    2.7960   -0.9910 O   0  0  0  0  0  0  0  0  0  0  0  0
   -2.6185    2.4144   -0.5444 C   0  0  0  0  0  0  0  0  0  0  0  0
   -2.5211    1.1830    0.0922 C   0  0  0  0  0  0  0  0  0  0  0  0
   -1.1908    0.8366   -0.0107 C   0  0  0  0  0  0  0  0  0  0  0  0
   -2.9242   -1.6057    0.1075 H   0  0  0  0  0  0  0  0  0  0  0  0
   -2.4120   -2.9404    1.2043 H   0  0  0  0  0  0  0  0  0  0  0  0
   -1.5626   -2.6979   -0.3699 H   0  0  0  0  0  0  0  0  0  0  0  0
    1.2889   -2.1972    1.2187 H   0  0  0  0  0  0  0  0  0  0  0  0
    3.7161   -2.1476    0.7843 H   0  0  0  0  0  0  0  0  0  0  0  0
    1.2659    2.6895   -1.4425 H   0  0  0  0  0  0  0  0  0  0  0  0
   -3.5257    2.9924   -0.6590 H   0  0  0  0  0  0  0  0  0  0  0  0
   -3.3178    0.6391    0.5803 H   0  0  0  0  0  0  0  0  0  0  0  0
  1  2  1  0
  2  3  1  0
  3  4  2  0
  4  5  1  0
  5  6  2  0
  6  7  1  0
  7  8  2  0
  7  9  1  0
  9 10  1  0
 10  4  1  0
 10 11  2  0
 11 12  1  0
 12 13  1  0
 13 14  1  0
 14 15  2  0
 15 16  1  0
 16  3  1  0
 16 12  2  0
  1 17  1  0
  1 18  1  0
  1 19  1  0
  5 20  1  0
  6 21  1  0
 11 22  1  0
 14 23  1  0
 15 24  1  0
M  END
> <ID>
HT0041

> <Class>
0.0

> <Clusters>
255

> <Fold>
4

$$$$