
     RDKit          3D

 35 36  0  0  0  0  0  0  0  0999 V2000
   -2.7853    2.0821    1.5030 C   0  0  0  0  0  0  0  0  0  0  0  0
   -2.8738    0.8234    0.6338 C   0  0  0  0  0  0  0  0  0  0  0  0
   -3.5092    1.1356   -0.7245 C   0  0  0  0  0  0  0  0  0  0  0  0
   -1.5096    0.1952    0.4552 C   0  0  0  0  0  0  0  0  0  0  0  0
   -1.0940   -1.0799    0.8319 C   0  0  0  0  0  0  0  0  0  0  0  0
   -1.9387   -2.1142    1.5195 C   0  0  0  0  0  0  0  0  0  0  0  0
    0.2226   -1.2209    0.5336 N   0  0  0  0  0  0  0  0  0  0  0  0
    1.0530   -2.3909    0.8343 C   0  0  0  0  0  0  0  0  0  0  0  0
    0.6472   -0.1092   -0.0615 N   0  0  0  0  0  0  0  0  0  0  0  0
   -0.3801    0.7612   -0.1108 C   0  0  0  0  0  0  0  0  0  0  0  0
   -0.3096    1.9129   -0.6185 O   0  0  0  0  0  0  0  0  0  0  0  0
    1.9668    0.1181   -0.5883 C   0  0  0  0  0  0  0  0  0  0  0  0
    2.5282   -0.7815   -1.5090 C   0  0  0  0  0  0  0  0  0  0  0  0
    3.8052   -0.5508   -2.0298 C   0  0  0  0  0  0  0  0  0  0  0  0
    4.5262    0.5816   -1.6406 C   0  0  0  0  0  0  0  0  0  0  0  0
    3.9697    1.4866   -0.7324 C   0  0  0  0  0  0  0  0  0  0  0  0
    2.6928    1.2589   -0.2098 C   0  0  0  0  0  0  0  0  0  0  0  0
   -3.8034    2.4821    1.6971 H   0  0  0  0  0  0  0  0  0  0  0  0
   -2.1850    2.8721    1.0042 H   0  0  0  0  0  0  0  0  0  0  0  0
   -2.3168    1.8374    2.4804 H   0  0  0  0  0  0  0  0  0  0  0  0
   -3.5429    0.1101    1.1592 H   0  0  0  0  0  0  0  0  0  0  0  0
   -2.9166    1.8948   -1.2776 H   0  0  0  0  0  0  0  0  0  0  0  0
   -4.5397    1.5253   -0.5818 H   0  0  0  0  0  0  0  0  0  0  0  0
   -3.5699    0.2107   -1.3373 H   0  0  0  0  0  0  0  0  0  0  0  0
   -1.5196   -3.1305    1.3747 H   0  0  0  0  0  0  0  0  0  0  0  0
   -1.9904   -1.8887    2.6047 H   0  0  0  0  0  0  0  0  0  0  0  0
   -2.9629   -2.1201    1.0936 H   0  0  0  0  0  0  0  0  0  0  0  0
    0.7752   -2.8182    1.8204 H   0  0  0  0  0  0  0  0  0  0  0  0
    2.1244   -2.1102    0.8959 H   0  0  0  0  0  0  0  0  0  0  0  0
    0.9152   -3.1593    0.0455 H   0  0  0  0  0  0  0  0  0  0  0  0
    1.9721   -1.6530   -1.8295 H   0  0  0  0  0  0  0  0  0  0  0  0
    4.2341   -1.2476   -2.7383 H   0  0  0  0  0  0  0  0  0  0  0  0
    5.5143    0.7593   -2.0450 H   0  0  0  0  0  0  0  0  0  0  0  0
    4.5277    2.3644   -0.4332 H   0  0  0  0  0  0  0  0  0  0  0  0
    2.2729    1.9632    0.4971 H   0  0  0  0  0  0  0  0  0  0  0  0
  1  2  1  0
  2  3  1  0
  2  4  1  0
  4  5  2  0
  5  6  1  0
  5  7  1  0
  7  8  1  0
  7  9  1  0
  9 10  1  0
 10  4  1  0
 10 11  2  0
  9 12  1  0
 12 13  2  0
 13 14  1  0
 14 15  2  0
 15 16  1  0
 16 17  2  0
 17 12  1  0
  1 18  1  0
  1 19  1  0
  1 20  1  0
  2 21  1  0
  3 22  1  0
  3 23  1  0
  3 24  1  0
  6 25  1  0
  6 26  1  0
  6 27  1  0
  8 28  1  0
  8 29  1  0
  8 30  1  0
 13 31  1  0
 14 32  1  0
 15 33  1  0
 16 34  1  0
 17 35  1  0
M  END
> <ID>
HT3006

> <Class>
0.0

> <Clusters>
16

> <Fold>
4

$$$$