
     RDKit          3D

 57 60  0  0  0  0  0  0  0  0999 V2000
    8.8507    0.2384   -0.2289 C   0  0  0  0  0  0  0  0  0  0  0  0
    7.7646   -0.4064    0.5200 N   0  0  0  0  0  0  0  0  0  0  0  0
    8.1060   -1.2951    1.6381 C   0  0  0  0  0  0  0  0  0  0  0  0
    6.3771   -0.1786    0.1545 C   0  0  0  0  0  0  0  0  0  0  0  0
    6.0349    0.2939   -1.1250 C   0  0  0  0  0  0  0  0  0  0  0  0
    4.7025    0.5085   -1.4826 C   0  0  0  0  0  0  0  0  0  0  0  0
    3.6510    0.2497   -0.5733 C   0  0  0  0  0  0  0  0  0  0  0  0
    3.9977   -0.1925    0.7266 C   0  0  0  0  0  0  0  0  0  0  0  0
    2.9938   -0.3943    1.6710 C   0  0  0  0  0  0  0  0  0  0  0  0
    1.6740   -0.1289    1.3454 C   0  0  0  0  0  0  0  0  0  0  0  0
    1.3358    0.2968    0.0514 C   0  0  0  0  0  0  0  0  0  0  0  0
   -0.0771    0.6731   -0.2203 C   0  0  0  0  0  0  0  0  0  0  0  0
   -1.1124   -0.0441    0.2367 C   0  0  0  0  0  0  0  0  0  0  0  0
   -2.5221    0.3150   -0.0350 C   0  0  0  0  0  0  0  0  0  0  0  0
   -2.9879    1.3461   -0.8376 C   0  0  0  0  0  0  0  0  0  0  0  0
   -4.3668    1.2618   -0.8204 C   0  0  0  0  0  0  0  0  0  0  0  0
   -5.2846    2.1807   -1.5681 C   0  0  0  0  0  0  0  0  0  0  0  0
   -4.7657    0.2371   -0.0331 N   0  0  0  0  0  0  0  0  0  0  0  0
   -3.6438   -0.3423    0.4557 C   0  0  0  0  0  0  0  0  0  0  0  0
   -3.6249   -1.5319    1.3741 C   0  0  0  0  0  0  0  0  0  0  0  0
   -6.1222   -0.1751    0.2056 C   0  0  0  0  0  0  0  0  0  0  0  0
   -6.5385   -1.4712   -0.1381 C   0  0  0  0  0  0  0  0  0  0  0  0
   -7.8592   -1.8697    0.0898 C   0  0  0  0  0  0  0  0  0  0  0  0
   -8.7713   -0.9772    0.6604 C   0  0  0  0  0  0  0  0  0  0  0  0
   -8.3635    0.3148    1.0042 C   0  0  0  0  0  0  0  0  0  0  0  0
   -7.0433    0.7163    0.7779 C   0  0  0  0  0  0  0  0  0  0  0  0
    2.3192    0.4291   -0.9121 N   0  0  0  0  0  0  0  0  0  0  0  0
    1.9476    0.7492   -2.3074 C   0  0  0  0  0  0  0  0  0  0  0  0
    5.3396   -0.4116    1.0761 C   0  0  0  0  0  0  0  0  0  0  0  0
    8.6545    1.3283   -0.3139 H   0  0  0  0  0  0  0  0  0  0  0  0
    8.9299   -0.2092   -1.2416 H   0  0  0  0  0  0  0  0  0  0  0  0
    9.8299    0.1142    0.2799 H   0  0  0  0  0  0  0  0  0  0  0  0
    7.8545   -0.8037    2.6011 H   0  0  0  0  0  0  0  0  0  0  0  0
    9.1883   -1.5436    1.6484 H   0  0  0  0  0  0  0  0  0  0  0  0
    7.5463   -2.2501    1.5464 H   0  0  0  0  0  0  0  0  0  0  0  0
    6.7955    0.4972   -1.8658 H   0  0  0  0  0  0  0  0  0  0  0  0
    4.5186    0.8988   -2.4731 H   0  0  0  0  0  0  0  0  0  0  0  0
    3.2334   -0.7216    2.6761 H   0  0  0  0  0  0  0  0  0  0  0  0
    0.9202   -0.2266    2.1169 H   0  0  0  0  0  0  0  0  0  0  0  0
   -0.2546    1.5498   -0.8277 H   0  0  0  0  0  0  0  0  0  0  0  0
   -0.9196   -0.9404    0.8117 H   0  0  0  0  0  0  0  0  0  0  0  0
   -2.4026    2.0669   -1.3922 H   0  0  0  0  0  0  0  0  0  0  0  0
   -4.7400    2.6810   -2.3965 H   0  0  0  0  0  0  0  0  0  0  0  0
   -6.1301    1.6066   -2.0012 H   0  0  0  0  0  0  0  0  0  0  0  0
   -5.6785    2.9550   -0.8782 H   0  0  0  0  0  0  0  0  0  0  0  0
   -2.8276   -1.4161    2.1371 H   0  0  0  0  0  0  0  0  0  0  0  0
   -3.4391   -2.4528    0.7837 H   0  0  0  0  0  0  0  0  0  0  0  0
   -4.5885   -1.6310    1.9144 H   0  0  0  0  0  0  0  0  0  0  0  0
   -5.8410   -2.1662   -0.5881 H   0  0  0  0  0  0  0  0  0  0  0  0
   -8.1761   -2.8694   -0.1777 H   0  0  0  0  0  0  0  0  0  0  0  0
   -9.7934   -1.2868    0.8363 H   0  0  0  0  0  0  0  0  0  0  0  0
   -9.0697    1.0044    1.4482 H   0  0  0  0  0  0  0  0  0  0  0  0
   -6.7343    1.7152    1.0577 H   0  0  0  0  0  0  0  0  0  0  0  0
    0.8883    0.5142   -2.5340 H   0  0  0  0  0  0  0  0  0  0  0  0
    2.1367    1.8241   -2.5121 H   0  0  0  0  0  0  0  0  0  0  0  0
    2.5186    0.1172   -3.0196 H   0  0  0  0  0  0  0  0  0  0  0  0
    5.5694   -0.7470    2.0790 H   0  0  0  0  0  0  0  0  0  0  0  0
  1  2  1  0
  2  3  1  0
  2  4  1  0
  4  5  2  0
  5  6  1  0
  6  7  2  0
  7  8  1  0
  8  9  1  0
  9 10  2  0
 10 11  1  0
 11 12  1  0
 12 13  2  3
 13 14  1  0
 14 15  1  0
 15 16  2  0
 16 17  1  0
 16 18  1  0
 18 19  1  0
 19 14  2  0
 19 20  1  0
 18 21  1  0
 21 22  2  0
 22 23  1  0
 23 24  2  0
 24 25  1  0
 25 26  2  0
 26 21  1  0
 11 27  2  0
 27  7  1  0
 27 28  1  0
  8 29  2  0
 29  4  1  0
  1 30  1  0
  1 31  1  0
  1 32  1  0
  3 33  1  0
  3 34  1  0
  3 35  1  0
  5 36  1  0
  6 37  1  0
  9 38  1  0
 10 39  1  0
 12 40  1  0
 13 41  1  0
 15 42  1  0
 17 43  1  0
 17 44  1  0
 17 45  1  0
 20 46  1  0
 20 47  1  0
 20 48  1  0
 22 49  1  0
 23 50  1  0
 24 51  1  0
 25 52  1  0
 26 53  1  0
 28 54  1  0
 28 55  1  0
 28 56  1  0
 29 57  1  0
M  CHG  1  27   1
M  END
> <ID>
HT1783

> <Class>
0.0

> <Clusters>
16

> <Fold>
4

$$$$