
     RDKit          3D

 33 33  0  0  0  0  0  0  0  0999 V2000
    3.9656    1.9987   -0.0882 C   0  0  0  0  0  0  0  0  0  0  0  0
    3.7657    1.0311    0.9961 N   0  0  0  0  0  0  0  0  0  0  0  0
    4.8154    0.7032    1.8754 N   0  0  0  0  0  0  0  0  0  0  0  0
    5.9530    1.2051    1.7629 O   0  0  0  0  0  0  0  0  0  0  0  0
    2.4889    0.3966    1.1995 C   0  0  0  0  0  0  0  0  0  0  0  0
    2.3516   -0.4101    2.1598 O   0  0  0  0  0  0  0  0  0  0  0  0
    1.3719    0.6659    0.3318 N   0  0  0  0  0  0  0  0  0  0  0  0
    0.0656    0.0203    0.5039 C   0  0  1  0  0  0  0  0  0  0  0  0
   -1.0648    1.0292    0.2224 C   0  0  2  0  0  0  0  0  0  0  0  0
   -0.9652    2.0877    1.1360 O   0  0  0  0  0  0  0  0  0  0  0  0
   -2.3280    0.4053    0.3807 O   0  0  0  0  0  0  0  0  0  0  0  0
   -2.5189   -0.5932   -0.6083 C   0  0  2  0  0  0  0  0  0  0  0  0
   -3.9545   -1.1263   -0.4950 C   0  0  0  0  0  0  0  0  0  0  0  0
   -4.8777   -0.0981   -0.7351 O   0  0  0  0  0  0  0  0  0  0  0  0
   -1.4923   -1.7386   -0.4146 C   0  0  1  0  0  0  0  0  0  0  0  0
   -1.6563   -2.7421   -1.3870 O   0  0  0  0  0  0  0  0  0  0  0  0
   -0.0555   -1.1780   -0.4519 C   0  0  2  0  0  0  0  0  0  0  0  0
    0.8579   -2.1733   -0.0681 O   0  0  0  0  0  0  0  0  0  0  0  0
    4.9916    2.4191   -0.0813 H   0  0  0  0  0  0  0  0  0  0  0  0
    3.8077    1.5023   -1.0687 H   0  0  0  0  0  0  0  0  0  0  0  0
    3.2521    2.8422    0.0244 H   0  0  0  0  0  0  0  0  0  0  0  0
    1.5136    1.2384   -0.5294 H   0  0  0  0  0  0  0  0  0  0  0  0
   -0.0536   -0.3376    1.5518 H   0  0  0  0  0  0  0  0  0  0  0  0
   -0.9536    1.4412   -0.8107 H   0  0  0  0  0  0  0  0  0  0  0  0
   -1.6390    2.7619    0.8584 H   0  0  0  0  0  0  0  0  0  0  0  0
   -2.4074   -0.1562   -1.6290 H   0  0  0  0  0  0  0  0  0  0  0  0
   -4.1242   -1.5765    0.5105 H   0  0  0  0  0  0  0  0  0  0  0  0
   -4.1205   -1.9207   -1.2532 H   0  0  0  0  0  0  0  0  0  0  0  0
   -4.9706    0.4081    0.1138 H   0  0  0  0  0  0  0  0  0  0  0  0
   -1.6615   -2.1979    0.5850 H   0  0  0  0  0  0  0  0  0  0  0  0
   -1.5279   -2.3219   -2.2775 H   0  0  0  0  0  0  0  0  0  0  0  0
    0.1778   -0.8261   -1.4859 H   0  0  0  0  0  0  0  0  0  0  0  0
    0.9931   -2.7597   -0.8577 H   0  0  0  0  0  0  0  0  0  0  0  0
  1  2  1  0
  2  3  1  0
  3  4  2  0
  2  5  1  0
  5  6  2  0
  5  7  1  0
  8  7  1  0
  8  9  1  0
  9 10  1  0
  9 11  1  0
 11 12  1  0
 12 13  1  0
 13 14  1  0
 12 15  1  0
 15 16  1  0
 15 17  1  0
 17  8  1  0
 17 18  1  0
  1 19  1  0
  1 20  1  0
  1 21  1  0
  7 22  1  0
  8 23  1  1
  9 24  1  6
 10 25  1  0
 12 26  1  6
 13 27  1  0
 13 28  1  0
 14 29  1  0
 15 30  1  1
 16 31  1  0
 17 32  1  6
 18 33  1  0
M  END
> <ID>
HT1919

> <Class>
0.0

> <Clusters>
70

> <Fold>
4

$$$$