
     RDKit          3D

 54 57  0  0  0  0  0  0  0  0999 V2000
   -3.2335   -2.1793   -0.5323 O   0  0  0  0  0  0  0  0  0  0  0  0
   -2.3343   -1.2873   -1.1392 C   0  0  0  0  0  0  0  0  0  0  0  0
   -1.0197   -1.2755   -0.3384 C   0  0  0  0  0  0  0  0  0  0  0  0
   -0.0036   -0.4730   -1.0333 N   0  0  0  0  0  0  0  0  0  0  0  0
    1.1133   -0.0834   -0.1569 C   0  0  0  0  0  0  0  0  0  0  0  0
    2.0186   -1.2775    0.2353 C   0  0  0  0  0  0  0  0  0  0  0  0
    1.4069   -2.0123    1.2648 O   0  0  0  0  0  0  0  0  0  0  0  0
    3.4296   -0.8304    0.6830 C   0  0  0  0  0  0  0  0  0  0  0  0
    3.4173    0.0778    1.9274 C   0  0  0  0  0  0  0  0  0  0  0  0
    4.8518    0.4670    2.3157 C   0  0  0  0  0  0  0  0  0  0  0  0
    5.6566    0.9304    1.1253 C   0  0  0  0  0  0  0  0  0  0  0  0
    6.8310    1.6745    1.3152 C   0  0  0  0  0  0  0  0  0  0  0  0
    7.5731    2.1111    0.2129 C   0  0  0  0  0  0  0  0  0  0  0  0
    8.7028    2.8366    0.4016 F   0  0  0  0  0  0  0  0  0  0  0  0
    7.1500    1.8025   -1.0835 C   0  0  0  0  0  0  0  0  0  0  0  0
    5.9896    1.0487   -1.2813 C   0  0  0  0  0  0  0  0  0  0  0  0
    5.2487    0.5999   -0.1832 C   0  0  0  0  0  0  0  0  0  0  0  0
    4.0986   -0.1687   -0.3918 O   0  0  0  0  0  0  0  0  0  0  0  0
   -2.9660    0.1235   -1.2113 C   0  0  0  0  0  0  0  0  0  0  0  0
   -4.1230    0.2146   -2.2304 C   0  0  0  0  0  0  0  0  0  0  0  0
   -5.4304   -0.3924   -1.7072 C   0  0  0  0  0  0  0  0  0  0  0  0
   -5.7389    0.0670   -0.3084 C   0  0  0  0  0  0  0  0  0  0  0  0
   -7.0546    0.0097    0.1773 C   0  0  0  0  0  0  0  0  0  0  0  0
   -7.3422    0.4266    1.4807 C   0  0  0  0  0  0  0  0  0  0  0  0
   -8.6157    0.3756    1.9429 F   0  0  0  0  0  0  0  0  0  0  0  0
   -6.3173    0.8943    2.3080 C   0  0  0  0  0  0  0  0  0  0  0  0
   -5.0026    0.9399    1.8363 C   0  0  0  0  0  0  0  0  0  0  0  0
   -4.7068    0.5219    0.5342 C   0  0  0  0  0  0  0  0  0  0  0  0
   -3.3794    0.5505    0.0913 O   0  0  0  0  0  0  0  0  0  0  0  0
   -2.9592   -3.0949   -0.8015 H   0  0  0  0  0  0  0  0  0  0  0  0
   -2.1094   -1.6289   -2.1775 H   0  0  0  0  0  0  0  0  0  0  0  0
   -0.6595   -2.3228   -0.2328 H   0  0  0  0  0  0  0  0  0  0  0  0
   -1.2185   -0.8727    0.6800 H   0  0  0  0  0  0  0  0  0  0  0  0
    0.3634   -1.0128   -1.8522 H   0  0  0  0  0  0  0  0  0  0  0  0
    1.7142    0.6729   -0.7056 H   0  0  0  0  0  0  0  0  0  0  0  0
    0.7253    0.4256    0.7528 H   0  0  0  0  0  0  0  0  0  0  0  0
    2.1469   -1.9287   -0.6612 H   0  0  0  0  0  0  0  0  0  0  0  0
    1.8288   -2.9111    1.2685 H   0  0  0  0  0  0  0  0  0  0  0  0
    4.0119   -1.7456    0.9337 H   0  0  0  0  0  0  0  0  0  0  0  0
    2.8456    1.0069    1.7153 H   0  0  0  0  0  0  0  0  0  0  0  0
    2.9354   -0.4438    2.7822 H   0  0  0  0  0  0  0  0  0  0  0  0
    5.3649   -0.4041    2.7773 H   0  0  0  0  0  0  0  0  0  0  0  0
    4.8018    1.2788    3.0738 H   0  0  0  0  0  0  0  0  0  0  0  0
    7.1653    1.9215    2.3154 H   0  0  0  0  0  0  0  0  0  0  0  0
    7.7234    2.1434   -1.9359 H   0  0  0  0  0  0  0  0  0  0  0  0
    5.6706    0.8054   -2.2867 H   0  0  0  0  0  0  0  0  0  0  0  0
   -2.1890    0.8349   -1.5663 H   0  0  0  0  0  0  0  0  0  0  0  0
   -4.3059    1.2891   -2.4541 H   0  0  0  0  0  0  0  0  0  0  0  0
   -3.8392   -0.2745   -3.1873 H   0  0  0  0  0  0  0  0  0  0  0  0
   -6.2519   -0.0852   -2.3908 H   0  0  0  0  0  0  0  0  0  0  0  0
   -5.3786   -1.5010   -1.7272 H   0  0  0  0  0  0  0  0  0  0  0  0
   -7.8553   -0.3542   -0.4548 H   0  0  0  0  0  0  0  0  0  0  0  0
   -6.5400    1.2165    3.3171 H   0  0  0  0  0  0  0  0  0  0  0  0
   -4.2110    1.2933    2.4847 H   0  0  0  0  0  0  0  0  0  0  0  0
  1  2  1  0
  2  3  1  0
  3  4  1  0
  4  5  1  0
  5  6  1  0
  6  7  1  0
  6  8  1  0
  8  9  1  0
  9 10  1  0
 10 11  1  0
 11 12  2  0
 12 13  1  0
 13 14  1  0
 13 15  2  0
 15 16  1  0
 16 17  2  0
 17 11  1  0
 17 18  1  0
 18  8  1  0
  2 19  1  0
 19 20  1  0
 20 21  1  0
 21 22  1  0
 22 23  2  0
 23 24  1  0
 24 25  1  0
 24 26  2  0
 26 27  1  0
 27 28  2  0
 28 22  1  0
 28 29  1  0
 29 19  1  0
  1 30  1  0
  2 31  1  0
  3 32  1  0
  3 33  1  0
  4 34  1  0
  5 35  1  0
  5 36  1  0
  6 37  1  0
  7 38  1  0
  8 39  1  0
  9 40  1  0
  9 41  1  0
 10 42  1  0
 10 43  1  0
 12 44  1  0
 15 45  1  0
 16 46  1  0
 19 47  1  0
 20 48  1  0
 20 49  1  0
 21 50  1  0
 21 51  1  0
 23 52  1  0
 26 53  1  0
 27 54  1  0
M  END
> <ID>
HT1468

> <Class>
0.0

> <Clusters>
182

> <Fold>
4

$$$$