
     RDKit          3D

 72 72  0  0  0  0  0  0  0  0999 V2000
    8.3562   -0.4144   -3.4366 C   0  0  0  0  0  0  0  0  0  0  0  0
    8.3109   -1.4787   -2.3404 C   0  0  0  0  0  0  0  0  0  0  0  0
    6.9024   -2.0868   -2.1730 C   0  0  0  0  0  0  0  0  0  0  0  0
    6.1448   -1.5543   -0.9449 C   0  0  0  0  0  0  0  0  0  0  0  0
    5.7856   -0.0665   -1.0623 C   0  0  0  0  0  0  0  0  0  0  0  0
    4.8804    0.3722    0.0953 C   0  0  0  0  0  0  0  0  0  0  0  0
    4.5333    1.8649   -0.0097 C   0  0  0  0  0  0  0  0  0  0  0  0
    3.7859    2.3985    1.2270 C   0  0  0  0  0  0  0  0  0  0  0  0
    2.4418    1.7096    1.5290 C   0  0  0  0  0  0  0  0  0  0  0  0
    1.3942    1.9286    0.4243 C   0  0  0  0  0  0  0  0  0  0  0  0
    0.0677    1.2123    0.7219 C   0  0  0  0  0  0  0  0  0  0  0  0
   -0.7163    1.8622    1.8765 C   0  0  0  0  0  0  0  0  0  0  0  0
   -2.1417    1.3011    2.0007 C   0  0  0  0  0  0  0  0  0  0  0  0
   -2.1590   -0.1403    2.5391 C   0  0  0  0  0  0  0  0  0  0  0  0
   -3.5766   -0.6865    2.7776 C   0  0  0  0  0  0  0  0  0  0  0  0
   -4.5669   -0.6735    1.5761 C   0  0  0  0  0  0  0  0  0  0  0  0
   -4.2938   -1.5898    0.4133 N   0  0  0  0  0  0  0  0  0  0  0  0
   -3.7775   -2.9054    0.8689 C   0  0  0  0  0  0  0  0  0  0  0  0
   -3.3113   -0.9951   -0.5302 C   0  0  0  0  0  0  0  0  0  0  0  0
   -5.5749   -1.8553   -0.3223 C   0  0  0  0  0  0  0  0  0  0  0  0
   -6.2672   -0.6110   -0.8559 C   0  0  0  0  0  0  0  0  0  0  0  0
   -7.2784    0.0178   -0.1064 C   0  0  0  0  0  0  0  0  0  0  0  0
   -7.9400    1.1410   -0.6126 C   0  0  0  0  0  0  0  0  0  0  0  0
   -7.6122    1.6362   -1.8770 C   0  0  0  0  0  0  0  0  0  0  0  0
   -6.6292    1.0030   -2.6418 C   0  0  0  0  0  0  0  0  0  0  0  0
   -5.9659   -0.1213   -2.1398 C   0  0  0  0  0  0  0  0  0  0  0  0
    9.3772    0.0184   -3.4910 H   0  0  0  0  0  0  0  0  0  0  0  0
    8.1145   -0.8693   -4.4205 H   0  0  0  0  0  0  0  0  0  0  0  0
    7.6359    0.4031   -3.2294 H   0  0  0  0  0  0  0  0  0  0  0  0
    8.6771   -1.0445   -1.3850 H   0  0  0  0  0  0  0  0  0  0  0  0
    9.0213   -2.2866   -2.6218 H   0  0  0  0  0  0  0  0  0  0  0  0
    6.2868   -1.9422   -3.0882 H   0  0  0  0  0  0  0  0  0  0  0  0
    7.0134   -3.1858   -2.0416 H   0  0  0  0  0  0  0  0  0  0  0  0
    5.2086   -2.1460   -0.8395 H   0  0  0  0  0  0  0  0  0  0  0  0
    6.7527   -1.7228   -0.0289 H   0  0  0  0  0  0  0  0  0  0  0  0
    6.7170    0.5388   -1.0392 H   0  0  0  0  0  0  0  0  0  0  0  0
    5.2611    0.1149   -2.0263 H   0  0  0  0  0  0  0  0  0  0  0  0
    5.3978    0.1787    1.0609 H   0  0  0  0  0  0  0  0  0  0  0  0
    3.9462   -0.2286    0.0617 H   0  0  0  0  0  0  0  0  0  0  0  0
    5.4766    2.4463   -0.1055 H   0  0  0  0  0  0  0  0  0  0  0  0
    3.9441    2.0553   -0.9313 H   0  0  0  0  0  0  0  0  0  0  0  0
    4.4453    2.2863    2.1153 H   0  0  0  0  0  0  0  0  0  0  0  0
    3.6093    3.4880    1.0917 H   0  0  0  0  0  0  0  0  0  0  0  0
    2.0605    2.1390    2.4790 H   0  0  0  0  0  0  0  0  0  0  0  0
    2.5949    0.6243    1.7046 H   0  0  0  0  0  0  0  0  0  0  0  0
    1.2145    3.0164    0.2801 H   0  0  0  0  0  0  0  0  0  0  0  0
    1.7784    1.5184   -0.5327 H   0  0  0  0  0  0  0  0  0  0  0  0
    0.2729    0.1443    0.9475 H   0  0  0  0  0  0  0  0  0  0  0  0
   -0.5526    1.2479   -0.2007 H   0  0  0  0  0  0  0  0  0  0  0  0
   -0.7931    2.9558    1.6903 H   0  0  0  0  0  0  0  0  0  0  0  0
   -0.1796    1.7188    2.8382 H   0  0  0  0  0  0  0  0  0  0  0  0
   -2.6387    1.3610    1.0120 H   0  0  0  0  0  0  0  0  0  0  0  0
   -2.7123    1.9499    2.7004 H   0  0  0  0  0  0  0  0  0  0  0  0
   -1.5875   -0.8277    1.8929 H   0  0  0  0  0  0  0  0  0  0  0  0
   -1.6342   -0.1492    3.5192 H   0  0  0  0  0  0  0  0  0  0  0  0
   -3.5062   -1.7054    3.2125 H   0  0  0  0  0  0  0  0  0  0  0  0
   -4.0324   -0.0649    3.5797 H   0  0  0  0  0  0  0  0  0  0  0  0
   -4.7043    0.3735    1.2293 H   0  0  0  0  0  0  0  0  0  0  0  0
   -5.5439   -0.9501    2.0328 H   0  0  0  0  0  0  0  0  0  0  0  0
   -2.7617   -2.8208    1.3095 H   0  0  0  0  0  0  0  0  0  0  0  0
   -3.6907   -3.6203    0.0195 H   0  0  0  0  0  0  0  0  0  0  0  0
   -4.4539   -3.3567    1.6289 H   0  0  0  0  0  0  0  0  0  0  0  0
   -2.2848   -0.9875   -0.1236 H   0  0  0  0  0  0  0  0  0  0  0  0
   -3.5768    0.0518   -0.7916 H   0  0  0  0  0  0  0  0  0  0  0  0
   -3.2578   -1.5825   -1.4739 H   0  0  0  0  0  0  0  0  0  0  0  0
   -6.2899   -2.4008    0.3370 H   0  0  0  0  0  0  0  0  0  0  0  0
   -5.4006   -2.5476   -1.1789 H   0  0  0  0  0  0  0  0  0  0  0  0
   -7.5575   -0.3613    0.8681 H   0  0  0  0  0  0  0  0  0  0  0  0
   -8.7113    1.6243   -0.0264 H   0  0  0  0  0  0  0  0  0  0  0  0
   -8.1252    2.5056   -2.2680 H   0  0  0  0  0  0  0  0  0  0  0  0
   -6.3848    1.3802   -3.6266 H   0  0  0  0  0  0  0  0  0  0  0  0
   -5.2187   -0.6090   -2.7528 H   0  0  0  0  0  0  0  0  0  0  0  0
  1  2  1  0
  2  3  1  0
  3  4  1  0
  4  5  1  0
  5  6  1  0
  6  7  1  0
  7  8  1  0
  8  9  1  0
  9 10  1  0
 10 11  1  0
 11 12  1  0
 12 13  1  0
 13 14  1  0
 14 15  1  0
 15 16  1  0
 16 17  1  0
 17 18  1  0
 17 19  1  0
 17 20  1  0
 20 21  1  0
 21 22  2  0
 22 23  1  0
 23 24  2  0
 24 25  1  0
 25 26  2  0
 26 21  1  0
  1 27  1  0
  1 28  1  0
  1 29  1  0
  2 30  1  0
  2 31  1  0
  3 32  1  0
  3 33  1  0
  4 34  1  0
  4 35  1  0
  5 36  1  0
  5 37  1  0
  6 38  1  0
  6 39  1  0
  7 40  1  0
  7 41  1  0
  8 42  1  0
  8 43  1  0
  9 44  1  0
  9 45  1  0
 10 46  1  0
 10 47  1  0
 11 48  1  0
 11 49  1  0
 12 50  1  0
 12 51  1  0
 13 52  1  0
 13 53  1  0
 14 54  1  0
 14 55  1  0
 15 56  1  0
 15 57  1  0
 16 58  1  0
 16 59  1  0
 18 60  1  0
 18 61  1  0
 18 62  1  0
 19 63  1  0
 19 64  1  0
 19 65  1  0
 20 66  1  0
 20 67  1  0
 22 68  1  0
 23 69  1  0
 24 70  1  0
 25 71  1  0
 26 72  1  0
M  CHG  1  17   1
M  END
> <ID>
HT3640

> <Class>
0.0

> <Clusters>
270

> <Fold>
4

$$$$