
     RDKit          3D

 35 35  0  0  0  0  0  0  0  0999 V2000
    3.8430   -1.3564    0.9231 C   0  0  0  0  0  0  0  0  0  0  0  0
    2.9890   -0.2098    0.3888 C   0  0  0  0  0  0  0  0  0  0  0  0
    1.5238   -0.6440    0.2172 C   0  0  0  0  0  0  0  0  0  0  0  0
    0.6044    0.5109   -0.2798 C   0  0  0  0  0  0  0  0  0  0  0  0
    0.7753    0.7171   -1.8001 C   0  0  0  0  0  0  0  0  0  0  0  0
   -0.8945    0.3160    0.2027 C   0  0  0  0  0  0  0  0  0  0  0  0
   -1.8701    1.3904   -0.3929 C   0  0  0  0  0  0  0  0  0  0  0  0
   -2.3516    1.1541   -1.8082 C   0  0  0  0  0  0  0  0  0  0  0  0
   -2.2336    2.0821   -2.7631 C   0  0  0  0  0  0  0  0  0  0  0  0
   -1.3902   -1.1009   -0.1315 C   0  0  0  0  0  0  0  0  0  0  0  0
   -1.2934   -1.5369   -1.3098 O   0  0  0  0  0  0  0  0  0  0  0  0
   -1.9588   -1.9661    0.8545 N   0  0  0  0  0  0  0  0  0  0  0  0
   -1.9593   -1.6258    2.2347 C   0  0  0  0  0  0  0  0  0  0  0  0
   -2.5718   -2.6693    3.3376 S   0  0  0  0  0  0  0  0  0  0  0  0
   -1.4031   -0.3877    2.6567 N   0  0  0  0  0  0  0  0  0  0  0  0
   -0.9052    0.5679    1.7175 C   0  0  0  0  0  0  0  0  0  0  0  0
   -0.4868    1.6735    2.1599 O   0  0  0  0  0  0  0  0  0  0  0  0
    3.4696   -1.6868    1.9158 H   0  0  0  0  0  0  0  0  0  0  0  0
    4.8941   -1.0165    1.0352 H   0  0  0  0  0  0  0  0  0  0  0  0
    3.8204   -2.2147    0.2182 H   0  0  0  0  0  0  0  0  0  0  0  0
    3.4146    0.1203   -0.5810 H   0  0  0  0  0  0  0  0  0  0  0  0
    3.0461    0.6392    1.1043 H   0  0  0  0  0  0  0  0  0  0  0  0
    1.4692   -1.5004   -0.4907 H   0  0  0  0  0  0  0  0  0  0  0  0
    1.1685   -1.0146    1.2030 H   0  0  0  0  0  0  0  0  0  0  0  0
    0.9805    1.4563    0.1727 H   0  0  0  0  0  0  0  0  0  0  0  0
    0.3090   -0.0929   -2.3919 H   0  0  0  0  0  0  0  0  0  0  0  0
    1.8476    0.7570   -2.0770 H   0  0  0  0  0  0  0  0  0  0  0  0
    0.3518    1.6933   -2.1048 H   0  0  0  0  0  0  0  0  0  0  0  0
   -1.4009    2.3963   -0.3079 H   0  0  0  0  0  0  0  0  0  0  0  0
   -2.7914    1.4247    0.2308 H   0  0  0  0  0  0  0  0  0  0  0  0
   -2.8970    0.2457   -2.0412 H   0  0  0  0  0  0  0  0  0  0  0  0
   -2.6321    1.8929   -3.7545 H   0  0  0  0  0  0  0  0  0  0  0  0
   -1.7457    3.0321   -2.5685 H   0  0  0  0  0  0  0  0  0  0  0  0
   -2.3395   -2.8924    0.5549 H   0  0  0  0  0  0  0  0  0  0  0  0
   -1.3817   -0.1547    3.6755 H   0  0  0  0  0  0  0  0  0  0  0  0
  1  2  1  0
  2  3  1  0
  3  4  1  0
  4  5  1  0
  4  6  1  0
  6  7  1  0
  7  8  1  0
  8  9  2  3
  6 10  1  0
 10 11  2  0
 10 12  1  0
 12 13  1  0
 13 14  2  0
 13 15  1  0
 15 16  1  0
 16  6  1  0
 16 17  2  0
  1 18  1  0
  1 19  1  0
  1 20  1  0
  2 21  1  0
  2 22  1  0
  3 23  1  0
  3 24  1  0
  4 25  1  0
  5 26  1  0
  5 27  1  0
  5 28  1  0
  7 29  1  0
  7 30  1  0
  8 31  1  0
  9 32  1  0
  9 33  1  0
 12 34  1  0
 15 35  1  0
M  END
> <ID>
HT2038

> <Class>
0.0

> <Clusters>
227

> <Fold>
4

$$$$