
     RDKit          3D

 58 61  0  0  0  0  0  0  0  0999 V2000
   -4.7151    5.1022    1.1709 C   0  0  0  0  0  0  0  0  0  0  0  0
   -5.0210    3.6479    0.8090 C   0  0  0  0  0  0  0  0  0  0  0  0
   -3.7793    2.8196    0.5690 C   0  0  0  0  0  0  0  0  0  0  0  0
   -2.6426    3.3425    0.7420 O   0  0  0  0  0  0  0  0  0  0  0  0
   -3.8670    1.4009    0.1210 C   0  0  0  0  0  0  0  0  0  0  0  0
   -5.1062    0.7411    0.0182 C   0  0  0  0  0  0  0  0  0  0  0  0
   -5.1711   -0.5775   -0.4315 C   0  0  0  0  0  0  0  0  0  0  0  0
   -4.0053   -1.2598   -0.7818 C   0  0  0  0  0  0  0  0  0  0  0  0
   -4.1254   -2.8731   -1.5495 S   0  0  0  0  0  0  0  0  0  0  0  0
   -2.7875   -3.5567   -0.5777 C   0  0  0  0  0  0  0  0  0  0  0  0
   -2.9054   -4.8468   -0.0504 C   0  0  0  0  0  0  0  0  0  0  0  0
   -1.8047   -5.4560    0.5563 C   0  0  0  0  0  0  0  0  0  0  0  0
   -0.5852   -4.7797    0.6293 C   0  0  0  0  0  0  0  0  0  0  0  0
   -0.4695   -3.4800    0.1264 C   0  0  0  0  0  0  0  0  0  0  0  0
   -1.5815   -2.8386   -0.4557 C   0  0  0  0  0  0  0  0  0  0  0  0
   -1.5434   -1.4348   -0.8229 N   0  0  0  0  0  0  0  0  0  0  0  0
   -0.3091   -0.8369   -1.3630 C   0  0  0  0  0  0  0  0  0  0  0  0
    0.6011   -0.2753   -0.2495 C   0  0  0  0  0  0  0  0  0  0  0  0
    2.0224   -0.5480   -0.5548 N   0  0  0  0  0  0  0  0  0  0  0  0
    2.8281   -0.5893    0.6875 C   0  0  0  0  0  0  0  0  0  0  0  0
    4.3136   -0.3490    0.3947 C   0  0  0  0  0  0  0  0  0  0  0  0
    4.5440    1.0092   -0.1613 N   0  0  0  0  0  0  0  0  0  0  0  0
    5.8108    1.0794   -0.9241 C   0  0  0  0  0  0  0  0  0  0  0  0
    7.0332    0.9245   -0.0104 C   0  0  0  0  0  0  0  0  0  0  0  0
    7.0163    1.8915    1.0055 O   0  0  0  0  0  0  0  0  0  0  0  0
    3.3950    1.5187   -0.9556 C   0  0  0  0  0  0  0  0  0  0  0  0
    2.5638    0.3831   -1.5790 C   0  0  0  0  0  0  0  0  0  0  0  0
   -2.7475   -0.6453   -0.6413 C   0  0  0  0  0  0  0  0  0  0  0  0
   -2.6935    0.6924   -0.2044 C   0  0  0  0  0  0  0  0  0  0  0  0
   -4.1249    5.1502    2.1106 H   0  0  0  0  0  0  0  0  0  0  0  0
   -5.6662    5.6546    1.3230 H   0  0  0  0  0  0  0  0  0  0  0  0
   -4.1481    5.5934    0.3512 H   0  0  0  0  0  0  0  0  0  0  0  0
   -5.6421    3.6415   -0.1126 H   0  0  0  0  0  0  0  0  0  0  0  0
   -5.6077    3.1936    1.6370 H   0  0  0  0  0  0  0  0  0  0  0  0
   -6.0314    1.2410    0.2685 H   0  0  0  0  0  0  0  0  0  0  0  0
   -6.1347   -1.0581   -0.5420 H   0  0  0  0  0  0  0  0  0  0  0  0
   -3.8337   -5.3954   -0.1481 H   0  0  0  0  0  0  0  0  0  0  0  0
   -1.8906   -6.4611    0.9495 H   0  0  0  0  0  0  0  0  0  0  0  0
    0.2726   -5.2622    1.0826 H   0  0  0  0  0  0  0  0  0  0  0  0
    0.4836   -2.9811    0.2183 H   0  0  0  0  0  0  0  0  0  0  0  0
   -0.5635   -0.0295   -2.0825 H   0  0  0  0  0  0  0  0  0  0  0  0
    0.2368   -1.6065   -1.9512 H   0  0  0  0  0  0  0  0  0  0  0  0
    0.3141   -0.7387    0.7220 H   0  0  0  0  0  0  0  0  0  0  0  0
    0.4443    0.8196   -0.1290 H   0  0  0  0  0  0  0  0  0  0  0  0
    2.4852    0.1815    1.4167 H   0  0  0  0  0  0  0  0  0  0  0  0
    2.7098   -1.5879    1.1619 H   0  0  0  0  0  0  0  0  0  0  0  0
    4.6667   -1.1408   -0.3047 H   0  0  0  0  0  0  0  0  0  0  0  0
    4.8756   -0.4547    1.3467 H   0  0  0  0  0  0  0  0  0  0  0  0
    5.8360    0.3044   -1.7239 H   0  0  0  0  0  0  0  0  0  0  0  0
    5.9077    2.0724   -1.4177 H   0  0  0  0  0  0  0  0  0  0  0  0
    7.0877   -0.1032    0.4186 H   0  0  0  0  0  0  0  0  0  0  0  0
    7.9514    1.0700   -0.6168 H   0  0  0  0  0  0  0  0  0  0  0  0
    6.4215    1.5469    1.7212 H   0  0  0  0  0  0  0  0  0  0  0  0
    2.7374    2.1120   -0.2830 H   0  0  0  0  0  0  0  0  0  0  0  0
    3.7147    2.2158   -1.7619 H   0  0  0  0  0  0  0  0  0  0  0  0
    3.2136   -0.1946   -2.2709 H   0  0  0  0  0  0  0  0  0  0  0  0
    1.7590    0.8257   -2.2072 H   0  0  0  0  0  0  0  0  0  0  0  0
   -1.7426    1.1851   -0.0950 H   0  0  0  0  0  0  0  0  0  0  0  0
  1  2  1  0
  2  3  1  0
  3  4  2  0
  3  5  1  0
  5  6  2  0
  6  7  1  0
  7  8  2  0
  8  9  1  0
  9 10  1  0
 10 11  2  0
 11 12  1  0
 12 13  2  0
 13 14  1  0
 14 15  2  0
 15 10  1  0
 15 16  1  0
 16 17  1  0
 17 18  1  0
 18 19  1  0
 19 20  1  0
 20 21  1  0
 21 22  1  0
 22 23  1  0
 23 24  1  0
 24 25  1  0
 22 26  1  0
 26 27  1  0
 27 19  1  0
 16 28  1  0
 28  8  1  0
 28 29  2  0
 29  5  1  0
  1 30  1  0
  1 31  1  0
  1 32  1  0
  2 33  1  0
  2 34  1  0
  6 35  1  0
  7 36  1  0
 11 37  1  0
 12 38  1  0
 13 39  1  0
 14 40  1  0
 17 41  1  0
 17 42  1  0
 18 43  1  0
 18 44  1  0
 20 45  1  0
 20 46  1  0
 21 47  1  0
 21 48  1  0
 23 49  1  0
 23 50  1  0
 24 51  1  0
 24 52  1  0
 25 53  1  0
 26 54  1  0
 26 55  1  0
 27 56  1  0
 27 57  1  0
 29 58  1  0
M  END
> <ID>
HT0387

> <Class>
0.0

> <Clusters>
276

> <Fold>
4

$$$$