
     RDKit          3D

 30 32  0  0  0  0  0  0  0  0999 V2000
    3.7222    0.8037    0.0117 C   0  0  0  0  0  0  0  0  0  0  0  0
    2.4765   -0.0576    0.1695 C   0  0  0  0  0  0  0  0  0  0  0  0
    1.3303    0.7662    0.1122 O   0  0  0  0  0  0  0  0  0  0  0  0
    0.2699    0.0535   -0.4904 C   0  0  0  0  0  0  0  0  0  0  0  0
    0.8682   -0.7062   -1.6781 C   0  0  0  0  0  0  0  0  0  0  0  0
    2.4508   -1.3402   -1.1249 S   0  0  0  0  0  0  0  0  0  0  0  0
   -0.8071    1.0844   -0.9697 C   0  0  0  0  0  0  0  0  0  0  0  0
   -2.0659    0.9609   -0.1946 N   0  0  0  0  0  0  0  0  0  0  0  0
   -1.7807    1.1117    1.2544 C   0  0  0  0  0  0  0  0  0  0  0  0
   -0.8418   -0.0120    1.7646 C   0  0  0  0  0  0  0  0  0  0  0  0
   -0.4101   -0.8849    0.5673 C   0  0  0  0  0  0  0  0  0  0  0  0
   -1.7029   -1.5050   -0.0103 C   0  0  0  0  0  0  0  0  0  0  0  0
   -2.6622   -0.3721   -0.4481 C   0  0  0  0  0  0  0  0  0  0  0  0
    3.7540    1.5706    0.8145 H   0  0  0  0  0  0  0  0  0  0  0  0
    3.7122    1.3158   -0.9741 H   0  0  0  0  0  0  0  0  0  0  0  0
    4.6342    0.1741    0.0865 H   0  0  0  0  0  0  0  0  0  0  0  0
    2.5153   -0.5569    1.1618 H   0  0  0  0  0  0  0  0  0  0  0  0
    1.0708   -0.0085   -2.5195 H   0  0  0  0  0  0  0  0  0  0  0  0
    0.2316   -1.5294   -2.0536 H   0  0  0  0  0  0  0  0  0  0  0  0
   -0.4197    2.1229   -0.8722 H   0  0  0  0  0  0  0  0  0  0  0  0
   -1.0374    0.9592   -2.0517 H   0  0  0  0  0  0  0  0  0  0  0  0
   -2.7346    1.0942    1.8261 H   0  0  0  0  0  0  0  0  0  0  0  0
   -1.3160    2.1048    1.4427 H   0  0  0  0  0  0  0  0  0  0  0  0
    0.0456    0.4265    2.2706 H   0  0  0  0  0  0  0  0  0  0  0  0
   -1.3697   -0.6358    2.5194 H   0  0  0  0  0  0  0  0  0  0  0  0
    0.2770   -1.6890    0.9089 H   0  0  0  0  0  0  0  0  0  0  0  0
   -2.1946   -2.1313    0.7665 H   0  0  0  0  0  0  0  0  0  0  0  0
   -1.4863   -2.1816   -0.8610 H   0  0  0  0  0  0  0  0  0  0  0  0
   -3.6261   -0.4601    0.1003 H   0  0  0  0  0  0  0  0  0  0  0  0
   -2.9034   -0.4779   -1.5289 H   0  0  0  0  0  0  0  0  0  0  0  0
  1  2  1  0
  2  3  1  0
  3  4  1  0
  4  5  1  0
  5  6  1  0
  6  2  1  0
  4  7  1  0
  7  8  1  0
  8  9  1  0
  9 10  1  0
 10 11  1  0
 11  4  1  0
 11 12  1  0
 12 13  1  0
 13  8  1  0
  1 14  1  0
  1 15  1  0
  1 16  1  0
  2 17  1  0
  5 18  1  0
  5 19  1  0
  7 20  1  0
  7 21  1  0
  9 22  1  0
  9 23  1  0
 10 24  1  0
 10 25  1  0
 11 26  1  0
 12 27  1  0
 12 28  1  0
 13 29  1  0
 13 30  1  0
M  END
> <ID>
HT0440

> <Class>
0.0

> <Clusters>
248

> <Fold>
4

$$$$