
     RDKit          3D

 25 24  0  0  0  0  0  0  0  0999 V2000
   -2.0826   -0.9505   -0.8207 C   0  0  0  0  0  0  0  0  0  0  0  0
   -1.3800   -0.2215    0.2628 N   0  0  0  0  0  0  0  0  0  0  0  0
   -1.8913   -0.7170    1.5643 C   0  0  0  0  0  0  0  0  0  0  0  0
   -1.6820    1.2271    0.1657 C   0  0  0  0  0  0  0  0  0  0  0  0
    0.0936   -0.4716    0.2219 C   0  0  0  0  0  0  0  0  0  0  0  0
    0.8009   -0.0299   -1.0788 C   0  0  0  0  0  0  0  0  0  0  0  0
    2.1945   -0.3286   -1.0093 O   0  0  0  0  0  0  0  0  0  0  0  0
    3.1048    0.4059   -0.2411 C   0  0  0  0  0  0  0  0  0  0  0  0
    2.7365    1.4339    0.3894 O   0  0  0  0  0  0  0  0  0  0  0  0
    4.4669   -0.0078   -0.1816 N   0  0  0  0  0  0  0  0  0  0  0  0
   -3.1870   -0.8890   -0.6934 H   0  0  0  0  0  0  0  0  0  0  0  0
   -1.8556   -0.5192   -1.8191 H   0  0  0  0  0  0  0  0  0  0  0  0
   -1.7971   -2.0261   -0.8288 H   0  0  0  0  0  0  0  0  0  0  0  0
   -2.9893   -0.5568    1.6573 H   0  0  0  0  0  0  0  0  0  0  0  0
   -1.4018   -0.1898    2.4142 H   0  0  0  0  0  0  0  0  0  0  0  0
   -1.6997   -1.8076    1.6811 H   0  0  0  0  0  0  0  0  0  0  0  0
   -1.0950    1.8087    0.9113 H   0  0  0  0  0  0  0  0  0  0  0  0
   -1.4566    1.6263   -0.8461 H   0  0  0  0  0  0  0  0  0  0  0  0
   -2.7622    1.4236    0.3501 H   0  0  0  0  0  0  0  0  0  0  0  0
    0.2980   -1.5585    0.3583 H   0  0  0  0  0  0  0  0  0  0  0  0
    0.5853    0.0467    1.0758 H   0  0  0  0  0  0  0  0  0  0  0  0
    0.3881   -0.5900   -1.9412 H   0  0  0  0  0  0  0  0  0  0  0  0
    0.6704    1.0548   -1.2722 H   0  0  0  0  0  0  0  0  0  0  0  0
    5.1603    0.5308    0.3835 H   0  0  0  0  0  0  0  0  0  0  0  0
    4.7809   -0.8556   -0.7036 H   0  0  0  0  0  0  0  0  0  0  0  0
  1  2  1  0
  2  3  1  0
  2  4  1  0
  2  5  1  0
  5  6  1  0
  6  7  1  0
  7  8  1  0
  8  9  2  0
  8 10  1  0
  1 11  1  0
  1 12  1  0
  1 13  1  0
  3 14  1  0
  3 15  1  0
  3 16  1  0
  4 17  1  0
  4 18  1  0
  4 19  1  0
  5 20  1  0
  5 21  1  0
  6 22  1  0
  6 23  1  0
 10 24  1  0
 10 25  1  0
M  CHG  1   2   1
M  END
> <ID>
HT0370

> <Class>
0.0

> <Clusters>
4

> <Fold>
4

$$$$