
     RDKit          3D

 26 26  0  0  0  0  0  0  0  0999 V2000
   -3.0098   -0.5366   -0.0624 C   0  0  0  0  0  0  0  0  0  0  0  0
   -1.5933    0.0421    0.1412 C   0  0  0  0  0  0  0  0  0  0  0  0
   -1.3139    0.1568    1.6537 C   0  0  0  0  0  0  0  0  0  0  0  0
   -1.5133    1.3782   -0.4652 N   0  0  0  0  0  0  0  0  0  0  0  0
   -0.5612   -0.9066   -0.5295 C   0  0  0  0  0  0  0  0  0  0  0  0
    0.8681   -0.4307   -0.3995 C   0  0  0  0  0  0  0  0  0  0  0  0
    1.7154   -0.9876    0.5741 C   0  0  0  0  0  0  0  0  0  0  0  0
    3.0390   -0.5527    0.6905 C   0  0  0  0  0  0  0  0  0  0  0  0
    3.5311    0.4347   -0.1688 C   0  0  0  0  0  0  0  0  0  0  0  0
    5.1922    0.9786   -0.0215 Cl  0  0  0  0  0  0  0  0  0  0  0  0
    2.6984    0.9849   -1.1483 C   0  0  0  0  0  0  0  0  0  0  0  0
    1.3741    0.5527   -1.2667 C   0  0  0  0  0  0  0  0  0  0  0  0
   -3.7741    0.1268    0.3965 H   0  0  0  0  0  0  0  0  0  0  0  0
   -3.2406   -0.6331   -1.1451 H   0  0  0  0  0  0  0  0  0  0  0  0
   -3.0940   -1.5419    0.4044 H   0  0  0  0  0  0  0  0  0  0  0  0
   -2.1028    0.7604    2.1519 H   0  0  0  0  0  0  0  0  0  0  0  0
   -1.2911   -0.8487    2.1267 H   0  0  0  0  0  0  0  0  0  0  0  0
   -0.3401    0.6586    1.8368 H   0  0  0  0  0  0  0  0  0  0  0  0
   -2.2262    2.0056   -0.0253 H   0  0  0  0  0  0  0  0  0  0  0  0
   -1.7537    1.3133   -1.4817 H   0  0  0  0  0  0  0  0  0  0  0  0
   -0.6553   -1.9227   -0.0851 H   0  0  0  0  0  0  0  0  0  0  0  0
   -0.8009   -1.0231   -1.6097 H   0  0  0  0  0  0  0  0  0  0  0  0
    1.3486   -1.7511    1.2490 H   0  0  0  0  0  0  0  0  0  0  0  0
    3.6806   -0.9838    1.4484 H   0  0  0  0  0  0  0  0  0  0  0  0
    3.0767    1.7451   -1.8199 H   0  0  0  0  0  0  0  0  0  0  0  0
    0.7461    0.9805   -2.0378 H   0  0  0  0  0  0  0  0  0  0  0  0
  1  2  1  0
  2  3  1  0
  2  4  1  0
  2  5  1  0
  5  6  1  0
  6  7  2  0
  7  8  1  0
  8  9  2  0
  9 10  1  0
  9 11  1  0
 11 12  2  0
 12  6  1  0
  1 13  1  0
  1 14  1  0
  1 15  1  0
  3 16  1  0
  3 17  1  0
  3 18  1  0
  4 19  1  0
  4 20  1  0
  5 21  1  0
  5 22  1  0
  7 23  1  0
  8 24  1  0
 11 25  1  0
 12 26  1  0
M  END
> <ID>
HT0467

> <Class>
0.0

> <Clusters>
54

> <Fold>
4

$$$$