
     RDKit          3D

 26 25  0  0  0  0  0  0  0  0999 V2000
    4.3181   -0.2897   -0.4629 C   0  0  0  0  0  0  0  0  0  0  0  0
    2.9103    0.1871   -0.5813 C   0  0  0  0  0  0  0  0  0  0  0  0
    2.4216    0.4268   -1.7192 O   0  0  0  0  0  0  0  0  0  0  0  0
    2.1502    0.3696    0.5792 O   0  0  0  0  0  0  0  0  0  0  0  0
    0.7820    0.7738    0.5673 C   0  0  0  0  0  0  0  0  0  0  0  0
   -0.1206   -0.4196    0.1846 C   0  0  0  0  0  0  0  0  0  0  0  0
   -1.5857   -0.1240    0.1443 N   0  0  0  0  0  0  0  0  0  0  0  0
   -2.0833    0.3244    1.4673 C   0  0  0  0  0  0  0  0  0  0  0  0
   -2.2942   -1.3757   -0.2195 C   0  0  0  0  0  0  0  0  0  0  0  0
   -1.8990    0.9019   -0.8796 C   0  0  0  0  0  0  0  0  0  0  0  0
    4.7870   -0.3820   -1.4657 H   0  0  0  0  0  0  0  0  0  0  0  0
    4.9030    0.4317    0.1447 H   0  0  0  0  0  0  0  0  0  0  0  0
    4.3315   -1.2815    0.0349 H   0  0  0  0  0  0  0  0  0  0  0  0
    0.6587    1.6250   -0.1336 H   0  0  0  0  0  0  0  0  0  0  0  0
    0.5336    1.1246    1.5887 H   0  0  0  0  0  0  0  0  0  0  0  0
    0.2131   -0.7991   -0.8077 H   0  0  0  0  0  0  0  0  0  0  0  0
    0.0820   -1.2367    0.9147 H   0  0  0  0  0  0  0  0  0  0  0  0
   -1.7780   -0.3837    2.2698 H   0  0  0  0  0  0  0  0  0  0  0  0
   -3.1945    0.3934    1.4743 H   0  0  0  0  0  0  0  0  0  0  0  0
   -1.7026    1.3352    1.7272 H   0  0  0  0  0  0  0  0  0  0  0  0
   -2.1009   -2.1774    0.5286 H   0  0  0  0  0  0  0  0  0  0  0  0
   -1.9633   -1.7486   -1.2151 H   0  0  0  0  0  0  0  0  0  0  0  0
   -3.3957   -1.2199   -0.2681 H   0  0  0  0  0  0  0  0  0  0  0  0
   -1.5191    1.9037   -0.5864 H   0  0  0  0  0  0  0  0  0  0  0  0
   -2.9988    1.0081   -1.0158 H   0  0  0  0  0  0  0  0  0  0  0  0
   -1.4556    0.6326   -1.8642 H   0  0  0  0  0  0  0  0  0  0  0  0
  1  2  1  0
  2  3  2  0
  2  4  1  0
  4  5  1  0
  5  6  1  0
  6  7  1  0
  7  8  1  0
  7  9  1  0
  7 10  1  0
  1 11  1  0
  1 12  1  0
  1 13  1  0
  5 14  1  0
  5 15  1  0
  6 16  1  0
  6 17  1  0
  8 18  1  0
  8 19  1  0
  8 20  1  0
  9 21  1  0
  9 22  1  0
  9 23  1  0
 10 24  1  0
 10 25  1  0
 10 26  1  0
M  CHG  1   7   1
M  END
> <ID>
HT0062

> <Class>
0.0

> <Clusters>
4

> <Fold>
4

$$$$