
     RDKit          3D

 55 59  0  0  0  0  0  0  0  0999 V2000
    0.7937    3.7513    0.5963 C   0  0  0  0  0  0  0  0  0  0  0  0
    1.7630    3.0208    1.4929 C   0  0  0  0  0  0  0  0  0  0  0  0
    1.9505    1.7336    1.4055 N   0  0  0  0  0  0  0  0  0  0  0  0
    1.2290    0.8268    0.5573 C   0  0  0  0  0  0  0  0  0  0  0  0
   -0.1643    0.7088    0.6685 C   0  0  0  0  0  0  0  0  0  0  0  0
   -0.8832   -0.1918   -0.1429 C   0  0  0  0  0  0  0  0  0  0  0  0
   -2.3280   -0.2974   -0.0656 N   0  0  0  0  0  0  0  0  0  0  0  0
   -3.0651    0.5763    0.8068 C   0  0  0  0  0  0  0  0  0  0  0  0
   -3.4996    0.1186    2.0586 C   0  0  0  0  0  0  0  0  0  0  0  0
   -4.2018    0.9744    2.9126 C   0  0  0  0  0  0  0  0  0  0  0  0
   -4.4695    2.2911    2.5208 C   0  0  0  0  0  0  0  0  0  0  0  0
   -5.3476    3.3649    3.5942 Cl  0  0  0  0  0  0  0  0  0  0  0  0
   -4.0345    2.7510    1.2725 C   0  0  0  0  0  0  0  0  0  0  0  0
   -3.3339    1.8960    0.4167 C   0  0  0  0  0  0  0  0  0  0  0  0
   -3.0309   -1.2542   -0.8986 C   0  0  0  0  0  0  0  0  0  0  0  0
   -4.4360   -1.3876   -0.8524 C   0  0  0  0  0  0  0  0  0  0  0  0
   -5.0883   -2.3157   -1.6679 C   0  0  0  0  0  0  0  0  0  0  0  0
   -4.3553   -3.1194   -2.5410 C   0  0  0  0  0  0  0  0  0  0  0  0
   -2.9668   -2.9963   -2.6037 C   0  0  0  0  0  0  0  0  0  0  0  0
   -2.3015   -2.0681   -1.7894 C   0  0  0  0  0  0  0  0  0  0  0  0
   -0.8774   -1.9424   -1.8676 N   0  0  0  0  0  0  0  0  0  0  0  0
   -0.1729   -1.0086   -1.0415 C   0  0  0  0  0  0  0  0  0  0  0  0
    1.2224   -0.9192   -1.1245 C   0  0  0  0  0  0  0  0  0  0  0  0
    1.9337   -0.0218   -0.3129 C   0  0  0  0  0  0  0  0  0  0  0  0
    3.3645    0.0877   -0.4229 N   0  0  0  0  0  0  0  0  0  0  0  0
    4.2450   -1.0270   -0.6496 C   0  0  0  0  0  0  0  0  0  0  0  0
    5.4785   -0.8139   -1.2839 C   0  0  0  0  0  0  0  0  0  0  0  0
    6.3600   -1.8787   -1.4940 C   0  0  0  0  0  0  0  0  0  0  0  0
    6.0229   -3.1643   -1.0591 C   0  0  0  0  0  0  0  0  0  0  0  0
    7.1303   -4.4990   -1.3215 Cl  0  0  0  0  0  0  0  0  0  0  0  0
    4.8055   -3.3825   -0.4066 C   0  0  0  0  0  0  0  0  0  0  0  0
    3.9222   -2.3194   -0.1954 C   0  0  0  0  0  0  0  0  0  0  0  0
    2.6111    3.7890    2.4602 C   0  0  0  0  0  0  0  0  0  0  0  0
   -0.2509    3.5105    0.8773 H   0  0  0  0  0  0  0  0  0  0  0  0
    0.9697    3.4673   -0.4626 H   0  0  0  0  0  0  0  0  0  0  0  0
    0.9186    4.8510    0.6783 H   0  0  0  0  0  0  0  0  0  0  0  0
   -0.6756    1.3078    1.4084 H   0  0  0  0  0  0  0  0  0  0  0  0
   -3.2912   -0.8978    2.3676 H   0  0  0  0  0  0  0  0  0  0  0  0
   -4.5349    0.6147    3.8777 H   0  0  0  0  0  0  0  0  0  0  0  0
   -4.2371    3.7692    0.9659 H   0  0  0  0  0  0  0  0  0  0  0  0
   -2.9955    2.2575   -0.5461 H   0  0  0  0  0  0  0  0  0  0  0  0
   -5.0368   -0.7781   -0.1913 H   0  0  0  0  0  0  0  0  0  0  0  0
   -6.1656   -2.4107   -1.6235 H   0  0  0  0  0  0  0  0  0  0  0  0
   -4.8640   -3.8369   -3.1718 H   0  0  0  0  0  0  0  0  0  0  0  0
   -2.4081   -3.6226   -3.2877 H   0  0  0  0  0  0  0  0  0  0  0  0
   -0.3434   -2.5465   -2.5335 H   0  0  0  0  0  0  0  0  0  0  0  0
    1.7530   -1.5421   -1.8336 H   0  0  0  0  0  0  0  0  0  0  0  0
    3.7913    1.0388   -0.3444 H   0  0  0  0  0  0  0  0  0  0  0  0
    5.7520    0.1772   -1.6237 H   0  0  0  0  0  0  0  0  0  0  0  0
    7.3046   -1.7030   -1.9928 H   0  0  0  0  0  0  0  0  0  0  0  0
    4.5457   -4.3734   -0.0564 H   0  0  0  0  0  0  0  0  0  0  0  0
    2.9974   -2.5039    0.3354 H   0  0  0  0  0  0  0  0  0  0  0  0
    2.3756    4.8736    2.4438 H   0  0  0  0  0  0  0  0  0  0  0  0
    2.4362    3.4088    3.4885 H   0  0  0  0  0  0  0  0  0  0  0  0
    3.6829    3.6555    2.2026 H   0  0  0  0  0  0  0  0  0  0  0  0
  1  2  1  0
  2  3  2  3
  3  4  1  0
  4  5  2  0
  5  6  1  0
  6  7  1  0
  7  8  1  0
  8  9  2  0
  9 10  1  0
 10 11  2  0
 11 12  1  0
 11 13  1  0
 13 14  2  0
 14  8  1  0
  7 15  1  0
 15 16  2  0
 16 17  1  0
 17 18  2  0
 18 19  1  0
 19 20  2  0
 20 15  1  0
 20 21  1  0
 21 22  1  0
 22  6  2  0
 22 23  1  0
 23 24  2  0
 24  4  1  0
 24 25  1  0
 25 26  1  0
 26 27  2  0
 27 28  1  0
 28 29  2  0
 29 30  1  0
 29 31  1  0
 31 32  2  0
 32 26  1  0
  2 33  1  0
  1 34  1  0
  1 35  1  0
  1 36  1  0
  5 37  1  0
  9 38  1  0
 10 39  1  0
 13 40  1  0
 14 41  1  0
 16 42  1  0
 17 43  1  0
 18 44  1  0
 19 45  1  0
 21 46  1  0
 23 47  1  0
 25 48  1  0
 27 49  1  0
 28 50  1  0
 31 51  1  0
 32 52  1  0
 33 53  1  0
 33 54  1  0
 33 55  1  0
M  END
> <ID>
HT0522

> <Class>
0.0

> <Clusters>
273

> <Fold>
4

$$$$