
     RDKit          3D

 31 33  0  0  0  0  0  0  0  0999 V2000
    5.0342    0.6447    1.0253 N   0  0  0  0  0  0  0  0  0  0  0  0
    4.0359   -0.0354    0.2646 C   0  0  0  0  0  0  0  0  0  0  0  0
    4.3647   -1.1134   -0.5088 N   0  0  0  0  0  0  0  0  0  0  0  0
    3.4172   -1.7851   -1.2395 C   0  0  0  0  0  0  0  0  0  0  0  0
    3.8852   -3.1629   -2.2115 Cl  0  0  0  0  0  0  0  0  0  0  0  0
    2.1093   -1.3876   -1.2115 N   0  0  0  0  0  0  0  0  0  0  0  0
    1.7889   -0.3142   -0.4492 C   0  0  0  0  0  0  0  0  0  0  0  0
    2.7036    0.3611    0.2830 C   0  0  0  0  0  0  0  0  0  0  0  0
    2.1151    1.3559    0.9738 N   0  0  0  0  0  0  0  0  0  0  0  0
    0.8069    1.2384    0.6132 C   0  0  0  0  0  0  0  0  0  0  0  0
    0.5796    0.2296   -0.2689 N   0  0  0  0  0  0  0  0  0  0  0  0
   -0.7043   -0.2441   -0.7877 C   0  0  1  0  0  0  0  0  0  0  0  0
   -1.3198   -1.2664    0.1530 C   0  0  0  0  0  0  0  0  0  0  0  0
   -2.7945   -1.0067    0.0137 C   0  0  2  0  0  0  0  0  0  0  0  0
   -3.3753   -1.8576   -0.9473 O   0  0  0  0  0  0  0  0  0  0  0  0
   -2.8522    0.4610   -0.4282 C   0  0  1  0  0  0  0  0  0  0  0  0
   -3.2135    1.3871    0.7393 C   0  0  0  0  0  0  0  0  0  0  0  0
   -3.2407    2.7160    0.2975 O   0  0  0  0  0  0  0  0  0  0  0  0
   -1.5943    0.8397   -0.9495 O   0  0  0  0  0  0  0  0  0  0  0  0
    4.7898    1.4681    1.6193 H   0  0  0  0  0  0  0  0  0  0  0  0
    6.0270    0.3229    0.9942 H   0  0  0  0  0  0  0  0  0  0  0  0
    0.0276    1.8786    1.0055 H   0  0  0  0  0  0  0  0  0  0  0  0
   -0.5473   -0.7115   -1.7857 H   0  0  0  0  0  0  0  0  0  0  0  0
   -1.0419   -2.3062   -0.1273 H   0  0  0  0  0  0  0  0  0  0  0  0
   -1.0075   -1.0718    1.2037 H   0  0  0  0  0  0  0  0  0  0  0  0
   -3.3096   -1.1782    0.9850 H   0  0  0  0  0  0  0  0  0  0  0  0
   -2.9188   -1.7040   -1.8163 H   0  0  0  0  0  0  0  0  0  0  0  0
   -3.6226    0.5897   -1.2208 H   0  0  0  0  0  0  0  0  0  0  0  0
   -2.4608    1.2774    1.5525 H   0  0  0  0  0  0  0  0  0  0  0  0
   -4.2159    1.1090    1.1360 H   0  0  0  0  0  0  0  0  0  0  0  0
   -3.4660    3.2656    1.0926 H   0  0  0  0  0  0  0  0  0  0  0  0
  1  2  1  0
  2  3  2  0
  3  4  1  0
  4  5  1  0
  4  6  2  0
  6  7  1  0
  7  8  2  0
  8  2  1  0
  8  9  1  0
  9 10  2  0
 10 11  1  0
 11  7  1  0
 12 11  1  0
 12 13  1  0
 13 14  1  0
 14 15  1  0
 14 16  1  0
 16 17  1  0
 17 18  1  0
 16 19  1  0
 19 12  1  0
  1 20  1  0
  1 21  1  0
 10 22  1  0
 12 23  1  6
 13 24  1  0
 13 25  1  0
 14 26  1  1
 15 27  1  0
 16 28  1  6
 17 29  1  0
 17 30  1  0
 18 31  1  0
M  END
> <ID>
HT0503

> <Class>
0.0

> <Clusters>
58

> <Fold>
4

$$$$