
     RDKit          3D

 50 50  0  0  0  0  0  0  0  0999 V2000
   -6.3230    0.0313    1.8802 C   0  0  0  0  0  0  0  0  0  0  0  0
   -5.2850   -0.3043    0.8059 C   0  0  0  0  0  0  0  0  0  0  0  0
   -4.0075   -1.0275    1.2602 C   0  0  0  0  0  0  0  0  0  0  0  0
   -5.8571   -0.7856   -0.5240 C   0  0  0  0  0  0  0  0  0  0  0  0
   -5.2571    0.6197   -0.4187 C   0  0  0  0  0  0  0  0  0  0  0  0
   -3.9295    0.8063   -1.0958 C   0  0  0  0  0  0  0  0  0  0  0  0
   -3.7580    0.3592   -2.2623 O   0  0  0  0  0  0  0  0  0  0  0  0
   -2.8735    1.4994   -0.4131 N   0  0  0  0  0  0  0  0  0  0  0  0
   -1.5639    1.6961   -0.9740 C   0  0  0  0  0  0  0  0  0  0  0  0
   -0.5030    1.5584   -0.1532 C   0  0  0  0  0  0  0  0  0  0  0  0
    0.9406    1.7790   -0.5245 C   0  0  0  0  0  0  0  0  0  0  0  0
    1.6107    0.4956   -1.0463 C   0  0  0  0  0  0  0  0  0  0  0  0
    1.5906   -0.6861   -0.0543 C   0  0  0  0  0  0  0  0  0  0  0  0
    2.3221   -0.4231    1.2713 C   0  0  0  0  0  0  0  0  0  0  0  0
    4.0829    0.0139    1.0225 S   0  0  0  0  0  0  0  0  0  0  0  0
    4.7085   -1.7080    0.9623 C   0  0  0  0  0  0  0  0  0  0  0  0
    6.2116   -1.7665    0.6436 C   0  0  0  0  0  0  0  0  0  0  0  0
    6.9897   -1.1641    1.7308 N   0  0  0  0  0  0  0  0  0  0  0  0
    6.5209   -1.1357   -0.6938 C   0  0  0  0  0  0  0  0  0  0  0  0
    6.0109   -1.6148   -1.7422 O   0  0  0  0  0  0  0  0  0  0  0  0
    7.3699   -0.0354   -0.7840 O   0  0  0  0  0  0  0  0  0  0  0  0
   -1.4501    2.1334   -2.3878 C   0  0  0  0  0  0  0  0  0  0  0  0
   -0.4497    1.8314   -3.0910 O   0  0  0  0  0  0  0  0  0  0  0  0
   -2.4859    2.8669   -2.9591 O   0  0  0  0  0  0  0  0  0  0  0  0
   -6.6569   -0.9027    2.3790 H   0  0  0  0  0  0  0  0  0  0  0  0
   -7.2139    0.5420    1.4550 H   0  0  0  0  0  0  0  0  0  0  0  0
   -5.8641    0.6989    2.6389 H   0  0  0  0  0  0  0  0  0  0  0  0
   -3.4274   -0.3647    1.9353 H   0  0  0  0  0  0  0  0  0  0  0  0
   -4.2830   -1.9464    1.8187 H   0  0  0  0  0  0  0  0  0  0  0  0
   -3.3586   -1.3249    0.4092 H   0  0  0  0  0  0  0  0  0  0  0  0
   -6.9655   -0.7903   -0.5990 H   0  0  0  0  0  0  0  0  0  0  0  0
   -5.2402   -1.5286   -1.0745 H   0  0  0  0  0  0  0  0  0  0  0  0
   -5.9888    1.4553   -0.4302 H   0  0  0  0  0  0  0  0  0  0  0  0
   -3.0304    1.7578    0.5879 H   0  0  0  0  0  0  0  0  0  0  0  0
   -0.6863    1.2647    0.8743 H   0  0  0  0  0  0  0  0  0  0  0  0
    1.0386    2.5933   -1.2720 H   0  0  0  0  0  0  0  0  0  0  0  0
    1.4866    2.1425    0.3706 H   0  0  0  0  0  0  0  0  0  0  0  0
    2.6591    0.7285   -1.3292 H   0  0  0  0  0  0  0  0  0  0  0  0
    1.1004    0.1678   -1.9759 H   0  0  0  0  0  0  0  0  0  0  0  0
    0.5379   -0.9632    0.1687 H   0  0  0  0  0  0  0  0  0  0  0  0
    2.0479   -1.5666   -0.5520 H   0  0  0  0  0  0  0  0  0  0  0  0
    2.2409   -1.3225    1.9180 H   0  0  0  0  0  0  0  0  0  0  0  0
    1.8258    0.4021    1.8211 H   0  0  0  0  0  0  0  0  0  0  0  0
    4.5280   -2.1934    1.9454 H   0  0  0  0  0  0  0  0  0  0  0  0
    4.1527   -2.2819    0.1915 H   0  0  0  0  0  0  0  0  0  0  0  0
    6.4940   -2.8409    0.5783 H   0  0  0  0  0  0  0  0  0  0  0  0
    8.0060   -1.3342    1.5489 H   0  0  0  0  0  0  0  0  0  0  0  0
    6.8440   -0.1285    1.7452 H   0  0  0  0  0  0  0  0  0  0  0  0
    7.5782    0.3885   -1.6801 H   0  0  0  0  0  0  0  0  0  0  0  0
   -2.4399    3.1669   -3.9255 H   0  0  0  0  0  0  0  0  0  0  0  0
  1  2  1  0
  2  3  1  0
  2  4  1  0
  4  5  1  0
  5  2  1  0
  5  6  1  0
  6  7  2  0
  6  8  1  0
  8  9  1  0
  9 10  2  3
 10 11  1  0
 11 12  1  0
 12 13  1  0
 13 14  1  0
 14 15  1  0
 15 16  1  0
 16 17  1  0
 17 18  1  0
 17 19  1  0
 19 20  2  0
 19 21  1  0
  9 22  1  0
 22 23  2  0
 22 24  1  0
  1 25  1  0
  1 26  1  0
  1 27  1  0
  3 28  1  0
  3 29  1  0
  3 30  1  0
  4 31  1  0
  4 32  1  0
  5 33  1  0
  8 34  1  0
 10 35  1  0
 11 36  1  0
 11 37  1  0
 12 38  1  0
 12 39  1  0
 13 40  1  0
 13 41  1  0
 14 42  1  0
 14 43  1  0
 16 44  1  0
 16 45  1  0
 17 46  1  0
 18 47  1  0
 18 48  1  0
 21 49  1  0
 24 50  1  0
M  END
> <ID>
HT0483

> <Class>
0.0

> <Clusters>
148

> <Fold>
4

$$$$