
     RDKit          3D

 32 34  0  0  0  0  0  0  0  0999 V2000
    5.2519   -0.5185   -0.5831 N   0  0  0  0  0  0  0  0  0  0  0  0
    4.1426    0.1122    0.0571 C   0  0  0  0  0  0  0  0  0  0  0  0
    4.3247    1.2284    0.8247 N   0  0  0  0  0  0  0  0  0  0  0  0
    3.2692    1.8531    1.4401 C   0  0  0  0  0  0  0  0  0  0  0  0
    1.9983    1.3688    1.2993 N   0  0  0  0  0  0  0  0  0  0  0  0
    1.8232    0.2580    0.5430 C   0  0  0  0  0  0  0  0  0  0  0  0
    2.8465   -0.3726   -0.0767 C   0  0  0  0  0  0  0  0  0  0  0  0
    2.3934   -1.4215   -0.7894 N   0  0  0  0  0  0  0  0  0  0  0  0
    1.0514   -1.3828   -0.5597 C   0  0  0  0  0  0  0  0  0  0  0  0
    0.6747   -0.3697    0.2645 N   0  0  0  0  0  0  0  0  0  0  0  0
   -0.6821    0.0288    0.6417 C   0  0  2  0  0  0  0  0  0  0  0  0
   -1.5032   -1.1108    0.7787 O   0  0  0  0  0  0  0  0  0  0  0  0
   -2.7357   -0.8425    0.1403 C   0  0  2  0  0  0  0  0  0  0  0  0
   -2.9139   -1.8242   -1.0277 C   0  0  0  0  0  0  0  0  0  0  0  0
   -4.2238   -1.7601   -1.5280 O   0  0  0  0  0  0  0  0  0  0  0  0
   -2.7547    0.6186   -0.3196 C   0  0  1  0  0  0  0  0  0  0  0  0
   -3.3858    1.4065    0.6599 O   0  0  0  0  0  0  0  0  0  0  0  0
   -1.2848    0.9453   -0.4102 C   0  0  1  0  0  0  0  0  0  0  0  0
   -1.0123    2.2920   -0.1209 O   0  0  0  0  0  0  0  0  0  0  0  0
    6.2143   -0.1307   -0.4669 H   0  0  0  0  0  0  0  0  0  0  0  0
    5.1197   -1.3707   -1.1720 H   0  0  0  0  0  0  0  0  0  0  0  0
    3.4435    2.7361    2.0393 H   0  0  0  0  0  0  0  0  0  0  0  0
    0.3564   -2.0826   -1.0053 H   0  0  0  0  0  0  0  0  0  0  0  0
   -0.6544    0.5482    1.6266 H   0  0  0  0  0  0  0  0  0  0  0  0
   -3.5564   -1.0242    0.8698 H   0  0  0  0  0  0  0  0  0  0  0  0
   -2.7369   -2.8567   -0.6581 H   0  0  0  0  0  0  0  0  0  0  0  0
   -2.1601   -1.6250   -1.8256 H   0  0  0  0  0  0  0  0  0  0  0  0
   -4.1994   -1.1912   -2.3408 H   0  0  0  0  0  0  0  0  0  0  0  0
   -3.2548    0.7506   -1.3077 H   0  0  0  0  0  0  0  0  0  0  0  0
   -3.6623    2.2504    0.2160 H   0  0  0  0  0  0  0  0  0  0  0  0
   -0.9015    0.6757   -1.4234 H   0  0  0  0  0  0  0  0  0  0  0  0
   -1.2877    2.8110   -0.9210 H   0  0  0  0  0  0  0  0  0  0  0  0
  1  2  1  0
  2  3  2  0
  3  4  1  0
  4  5  2  0
  5  6  1  0
  6  7  2  0
  7  2  1  0
  7  8  1  0
  8  9  2  0
  9 10  1  0
 10  6  1  0
 11 10  1  0
 11 12  1  0
 12 13  1  0
 13 14  1  0
 14 15  1  0
 13 16  1  0
 16 17  1  0
 16 18  1  0
 18 11  1  0
 18 19  1  0
  1 20  1  0
  1 21  1  0
  4 22  1  0
  9 23  1  0
 11 24  1  1
 13 25  1  1
 14 26  1  0
 14 27  1  0
 15 28  1  0
 16 29  1  6
 17 30  1  0
 18 31  1  6
 19 32  1  0
M  END
> <ID>
HT0077

> <Class>
0.0

> <Clusters>
7

> <Fold>
4

$$$$