
     RDKit          3D

 58 59  0  0  0  0  0  0  0  0999 V2000
   -7.8736   -0.2155    0.3065 C   0  0  0  0  0  0  0  0  0  0  0  0
   -6.4617   -0.1905   -0.1520 N   0  0  0  0  0  0  0  0  0  0  0  0
   -6.3757   -0.9421   -1.4272 C   0  0  0  0  0  0  0  0  0  0  0  0
   -5.6387   -0.8673    0.8799 C   0  0  0  0  0  0  0  0  0  0  0  0
   -6.0582    1.2437   -0.3186 C   0  0  0  0  0  0  0  0  0  0  0  0
   -4.7379    1.5085   -1.0755 C   0  0  0  0  0  0  0  0  0  0  0  0
   -3.6394    0.9596   -0.3885 O   0  0  0  0  0  0  0  0  0  0  0  0
   -2.2068    1.4331   -1.1890 P   0  0  0  0  0  0  0  0  0  0  0  0
   -2.2770    1.0835   -2.6612 O   0  0  0  0  0  0  0  0  0  0  0  0
   -2.0213    3.1085   -1.0368 O   0  0  0  0  0  0  0  0  0  0  0  0
   -0.8649    0.6833   -0.4545 O   0  0  0  0  0  0  0  0  0  0  0  0
   -0.9025   -0.9759   -0.8467 P   0  0  0  0  0  0  0  0  0  0  0  0
   -2.2448   -1.5749   -0.4920 O   0  0  0  0  0  0  0  0  0  0  0  0
   -0.6183   -1.2033   -2.5019 O   0  0  0  0  0  0  0  0  0  0  0  0
    0.2934   -1.7875    0.0580 O   0  0  0  0  0  0  0  0  0  0  0  0
    1.5558   -1.3006   -0.3337 C   0  0  0  0  0  0  0  0  0  0  0  0
    2.6398   -1.9169    0.5574 C   0  0  1  0  0  0  0  0  0  0  0  0
    3.9109   -1.5620    0.0485 O   0  0  0  0  0  0  0  0  0  0  0  0
    4.6796   -1.0732    1.1239 C   0  0  2  0  0  0  0  0  0  0  0  0
    3.7332   -0.5530    2.1993 C   0  0  2  0  0  0  0  0  0  0  0  0
    4.2884   -0.6766    3.4833 O   0  0  0  0  0  0  0  0  0  0  0  0
    2.5230   -1.4418    2.0193 C   0  0  2  0  0  0  0  0  0  0  0  0
    2.5244   -2.5323    2.9113 O   0  0  0  0  0  0  0  0  0  0  0  0
    5.6102   -0.0227    0.6610 N   0  0  0  0  0  0  0  0  0  0  0  0
    6.9323   -0.1133    1.0020 C   0  0  0  0  0  0  0  0  0  0  0  0
    7.8449    0.8512    0.5802 C   0  0  0  0  0  0  0  0  0  0  0  0
    7.3845    1.9131   -0.1941 C   0  0  0  0  0  0  0  0  0  0  0  0
    6.0697    1.9812   -0.5191 N   0  0  0  0  0  0  0  0  0  0  0  0
    5.1854    1.0353   -0.1078 C   0  0  0  0  0  0  0  0  0  0  0  0
    3.9765    1.1460   -0.4454 O   0  0  0  0  0  0  0  0  0  0  0  0
    8.2825    2.9261   -0.6481 N   0  0  0  0  0  0  0  0  0  0  0  0
   -8.2277   -1.2570    0.4811 H   0  0  0  0  0  0  0  0  0  0  0  0
   -7.9940    0.3479    1.2594 H   0  0  0  0  0  0  0  0  0  0  0  0
   -8.5501    0.2418   -0.4507 H   0  0  0  0  0  0  0  0  0  0  0  0
   -6.8264   -1.9549   -1.3270 H   0  0  0  0  0  0  0  0  0  0  0  0
   -5.3197   -1.0938   -1.7404 H   0  0  0  0  0  0  0  0  0  0  0  0
   -6.9121   -0.4051   -2.2402 H   0  0  0  0  0  0  0  0  0  0  0  0
   -6.0446   -1.8767    1.1175 H   0  0  0  0  0  0  0  0  0  0  0  0
   -4.5977   -1.0275    0.5384 H   0  0  0  0  0  0  0  0  0  0  0  0
   -5.6127   -0.2794    1.8244 H   0  0  0  0  0  0  0  0  0  0  0  0
   -5.9959    1.7443    0.6743 H   0  0  0  0  0  0  0  0  0  0  0  0
   -6.8470    1.7921   -0.8846 H   0  0  0  0  0  0  0  0  0  0  0  0
   -4.6320    2.6151   -1.1472 H   0  0  0  0  0  0  0  0  0  0  0  0
   -4.8073    1.1111   -2.1107 H   0  0  0  0  0  0  0  0  0  0  0  0
   -1.1266    3.2991   -1.4164 H   0  0  0  0  0  0  0  0  0  0  0  0
    0.0407   -0.5067   -2.7479 H   0  0  0  0  0  0  0  0  0  0  0  0
    1.6114   -0.1913   -0.2450 H   0  0  0  0  0  0  0  0  0  0  0  0
    1.7688   -1.5967   -1.3850 H   0  0  0  0  0  0  0  0  0  0  0  0
    2.5391   -3.0240    0.5007 H   0  0  0  0  0  0  0  0  0  0  0  0
    5.2478   -1.9376    1.5410 H   0  0  0  0  0  0  0  0  0  0  0  0
    3.4384    0.5042    2.0066 H   0  0  0  0  0  0  0  0  0  0  0  0
    4.9785    0.0331    3.5590 H   0  0  0  0  0  0  0  0  0  0  0  0
    1.5967   -0.8526    2.1990 H   0  0  0  0  0  0  0  0  0  0  0  0
    3.3493   -3.0618    2.7527 H   0  0  0  0  0  0  0  0  0  0  0  0
    7.2933   -0.9331    1.6122 H   0  0  0  0  0  0  0  0  0  0  0  0
    8.8896    0.7722    0.8538 H   0  0  0  0  0  0  0  0  0  0  0  0
    7.9281    3.7229   -1.2216 H   0  0  0  0  0  0  0  0  0  0  0  0
    9.2981    2.8908   -0.4057 H   0  0  0  0  0  0  0  0  0  0  0  0
  1  2  1  0
  2  3  1  0
  2  4  1  0
  2  5  1  0
  5  6  1  0
  6  7  1  0
  7  8  1  0
  8  9  2  0
  8 10  1  0
  8 11  1  0
 11 12  1  0
 12 13  2  0
 12 14  1  0
 12 15  1  0
 15 16  1  0
 17 16  1  0
 17 18  1  0
 18 19  1  0
 19 20  1  0
 20 21  1  0
 20 22  1  0
 22 17  1  0
 22 23  1  0
 19 24  1  0
 24 25  1  0
 25 26  2  0
 26 27  1  0
 27 28  2  0
 28 29  1  0
 29 24  1  0
 29 30  2  0
 27 31  1  0
  1 32  1  0
  1 33  1  0
  1 34  1  0
  3 35  1  0
  3 36  1  0
  3 37  1  0
  4 38  1  0
  4 39  1  0
  4 40  1  0
  5 41  1  0
  5 42  1  0
  6 43  1  0
  6 44  1  0
 10 45  1  0
 14 46  1  0
 16 47  1  0
 16 48  1  0
 17 49  1  1
 19 50  1  1
 20 51  1  6
 21 52  1  0
 22 53  1  6
 23 54  1  0
 25 55  1  0
 26 56  1  0
 31 57  1  0
 31 58  1  0
M  CHG  1   2   1
M  END
> <ID>
HT0502

> <Class>
0.0

> <Clusters>
7

> <Fold>
4

$$$$