
     RDKit          3D

 56 55  0  0  0  0  0  0  0  0999 V2000
    7.4329    0.0591    0.3801 C   0  0  0  0  0  0  0  0  0  0  0  0
    6.0041    0.0272    0.7836 N   0  0  0  0  0  0  0  0  0  0  0  0
    5.6276    1.3772    1.2654 C   0  0  0  0  0  0  0  0  0  0  0  0
    5.8626   -0.9577    1.8849 C   0  0  0  0  0  0  0  0  0  0  0  0
    5.1946   -0.3757   -0.4089 C   0  0  0  0  0  0  0  0  0  0  0  0
    3.6508   -0.3634   -0.2136 C   0  0  0  0  0  0  0  0  0  0  0  0
    2.9872    0.8467   -0.8977 C   0  0  0  0  0  0  0  0  0  0  0  0
    1.4950    0.9820   -0.5531 C   0  0  0  0  0  0  0  0  0  0  0  0
    0.6386   -0.1359   -1.1686 C   0  0  0  0  0  0  0  0  0  0  0  0
   -0.8530    0.1108   -0.9090 C   0  0  0  0  0  0  0  0  0  0  0  0
   -1.7072   -1.0383   -1.4676 C   0  0  0  0  0  0  0  0  0  0  0  0
   -3.2168   -0.7519   -1.4010 C   0  0  0  0  0  0  0  0  0  0  0  0
   -3.7435   -0.6542    0.0448 C   0  0  0  0  0  0  0  0  0  0  0  0
   -5.2972   -0.5830    0.1138 C   0  0  0  0  0  0  0  0  0  0  0  0
   -5.8775    0.7749    0.3668 N   0  0  0  0  0  0  0  0  0  0  0  0
   -7.3588    0.6595    0.3044 C   0  0  0  0  0  0  0  0  0  0  0  0
   -5.5099    1.2739    1.7164 C   0  0  0  0  0  0  0  0  0  0  0  0
   -5.4450    1.7527   -0.6614 C   0  0  0  0  0  0  0  0  0  0  0  0
    7.6033    0.7952   -0.4379 H   0  0  0  0  0  0  0  0  0  0  0  0
    7.7700   -0.9399    0.0182 H   0  0  0  0  0  0  0  0  0  0  0  0
    8.0902    0.3491    1.2309 H   0  0  0  0  0  0  0  0  0  0  0  0
    6.3059    1.7120    2.0835 H   0  0  0  0  0  0  0  0  0  0  0  0
    4.5942    1.3947    1.6742 H   0  0  0  0  0  0  0  0  0  0  0  0
    5.6928    2.1243    0.4437 H   0  0  0  0  0  0  0  0  0  0  0  0
    6.5777   -0.7378    2.7094 H   0  0  0  0  0  0  0  0  0  0  0  0
    4.8483   -0.9378    2.3362 H   0  0  0  0  0  0  0  0  0  0  0  0
    6.0636   -1.9933    1.5272 H   0  0  0  0  0  0  0  0  0  0  0  0
    5.4871   -1.4060   -0.7205 H   0  0  0  0  0  0  0  0  0  0  0  0
    5.4543    0.2683   -1.2804 H   0  0  0  0  0  0  0  0  0  0  0  0
    3.2422   -1.2901   -0.6727 H   0  0  0  0  0  0  0  0  0  0  0  0
    3.3597   -0.3881    0.8535 H   0  0  0  0  0  0  0  0  0  0  0  0
    3.1117    0.7711   -2.0008 H   0  0  0  0  0  0  0  0  0  0  0  0
    3.4953    1.7783   -0.5707 H   0  0  0  0  0  0  0  0  0  0  0  0
    1.3664    0.9952    0.5512 H   0  0  0  0  0  0  0  0  0  0  0  0
    1.1404    1.9613   -0.9445 H   0  0  0  0  0  0  0  0  0  0  0  0
    0.9238   -1.1156   -0.7252 H   0  0  0  0  0  0  0  0  0  0  0  0
    0.8169   -0.1768   -2.2666 H   0  0  0  0  0  0  0  0  0  0  0  0
   -1.0130    0.1953    0.1872 H   0  0  0  0  0  0  0  0  0  0  0  0
   -1.1568    1.0671   -1.3898 H   0  0  0  0  0  0  0  0  0  0  0  0
   -1.4398   -1.2005   -2.5354 H   0  0  0  0  0  0  0  0  0  0  0  0
   -1.4799   -1.9789   -0.9161 H   0  0  0  0  0  0  0  0  0  0  0  0
   -3.4415    0.1792   -1.9627 H   0  0  0  0  0  0  0  0  0  0  0  0
   -3.7374   -1.5881   -1.9192 H   0  0  0  0  0  0  0  0  0  0  0  0
   -3.2710    0.2061    0.5503 H   0  0  0  0  0  0  0  0  0  0  0  0
   -3.4155   -1.5653    0.5932 H   0  0  0  0  0  0  0  0  0  0  0  0
   -5.6278   -1.2803    0.9202 H   0  0  0  0  0  0  0  0  0  0  0  0
   -5.7265   -1.0131   -0.8213 H   0  0  0  0  0  0  0  0  0  0  0  0
   -7.7370   -0.0603    1.0676 H   0  0  0  0  0  0  0  0  0  0  0  0
   -7.8519    1.6429    0.4899 H   0  0  0  0  0  0  0  0  0  0  0  0
   -7.6935    0.3042   -0.6965 H   0  0  0  0  0  0  0  0  0  0  0  0
   -4.4410    1.5660    1.7788 H   0  0  0  0  0  0  0  0  0  0  0  0
   -5.7098    0.5049    2.4968 H   0  0  0  0  0  0  0  0  0  0  0  0
   -6.0960    2.1856    1.9777 H   0  0  0  0  0  0  0  0  0  0  0  0
   -4.3515    1.9537   -0.5996 H   0  0  0  0  0  0  0  0  0  0  0  0
   -5.9582    2.7339   -0.5244 H   0  0  0  0  0  0  0  0  0  0  0  0
   -5.6798    1.3817   -1.6846 H   0  0  0  0  0  0  0  0  0  0  0  0
  1  2  1  0
  2  3  1  0
  2  4  1  0
  2  5  1  0
  5  6  1  0
  6  7  1  0
  7  8  1  0
  8  9  1  0
  9 10  1  0
 10 11  1  0
 11 12  1  0
 12 13  1  0
 13 14  1  0
 14 15  1  0
 15 16  1  0
 15 17  1  0
 15 18  1  0
  1 19  1  0
  1 20  1  0
  1 21  1  0
  3 22  1  0
  3 23  1  0
  3 24  1  0
  4 25  1  0
  4 26  1  0
  4 27  1  0
  5 28  1  0
  5 29  1  0
  6 30  1  0
  6 31  1  0
  7 32  1  0
  7 33  1  0
  8 34  1  0
  8 35  1  0
  9 36  1  0
  9 37  1  0
 10 38  1  0
 10 39  1  0
 11 40  1  0
 11 41  1  0
 12 42  1  0
 12 43  1  0
 13 44  1  0
 13 45  1  0
 14 46  1  0
 14 47  1  0
 16 48  1  0
 16 49  1  0
 16 50  1  0
 17 51  1  0
 17 52  1  0
 17 53  1  0
 18 54  1  0
 18 55  1  0
 18 56  1  0
M  CHG  2   2   1  15   1
M  END
> <ID>
HT0597

> <Class>
0.0

> <Clusters>
270

> <Fold>
4

$$$$