
     RDKit          3D

 50 52  0  0  0  0  0  0  0  0999 V2000
   -2.6349   -1.9904    0.3008 C   0  0  0  0  0  0  0  0  0  0  0  0
   -2.1141   -0.3109    0.5817 S   0  0  0  0  0  0  0  0  0  0  0  0
   -3.0580    0.8365   -0.4134 C   0  0  0  0  0  0  0  0  0  0  0  0
   -4.5072    0.9744    0.0800 C   0  0  0  0  0  0  0  0  0  0  0  0
   -4.6864    2.0240    1.2047 C   0  0  2  0  0  0  0  0  0  0  0  0
   -3.9862    1.6425    2.4349 N   0  0  0  0  0  0  0  0  0  0  0  0
   -6.1505    2.2228    1.4940 C   0  0  0  0  0  0  0  0  0  0  0  0
   -6.9021    2.7142    0.6085 O   0  0  0  0  0  0  0  0  0  0  0  0
   -6.6834    1.8774    2.7346 O   0  0  0  0  0  0  0  0  0  0  0  0
   -0.3536   -0.0660    0.3572 C   0  0  0  0  0  0  0  0  0  0  0  0
    0.1100   -0.3670   -1.0827 C   0  0  1  0  0  0  0  0  0  0  0  0
    1.2864    0.3737   -1.3472 O   0  0  0  0  0  0  0  0  0  0  0  0
    2.3061   -0.5338   -1.6973 C   0  0  2  0  0  0  0  0  0  0  0  0
    1.9003   -1.9238   -1.2399 C   0  0  2  0  0  0  0  0  0  0  0  0
    2.4354   -2.9079   -2.0853 O   0  0  0  0  0  0  0  0  0  0  0  0
    0.3946   -1.8593   -1.3057 C   0  0  2  0  0  0  0  0  0  0  0  0
   -0.0731   -2.2404   -2.5774 O   0  0  0  0  0  0  0  0  0  0  0  0
    3.5717   -0.1256   -1.0848 N   0  0  0  0  0  0  0  0  0  0  0  0
    4.7719    0.0362   -1.6996 C   0  0  0  0  0  0  0  0  0  0  0  0
    5.7676    0.4127   -0.8496 N   0  0  0  0  0  0  0  0  0  0  0  0
    5.1342    0.4846    0.3372 C   0  0  0  0  0  0  0  0  0  0  0  0
    5.6354    0.8266    1.5879 C   0  0  0  0  0  0  0  0  0  0  0  0
    7.0121    1.1572    1.7814 N   0  0  0  0  0  0  0  0  0  0  0  0
    4.7624    0.8304    2.6395 N   0  0  0  0  0  0  0  0  0  0  0  0
    3.4389    0.5082    2.4717 C   0  0  0  0  0  0  0  0  0  0  0  0
    2.9587    0.1719    1.2368 N   0  0  0  0  0  0  0  0  0  0  0  0
    3.8270    0.1680    0.1976 C   0  0  0  0  0  0  0  0  0  0  0  0
   -2.5272   -2.2401   -0.7750 H   0  0  0  0  0  0  0  0  0  0  0  0
   -3.6976   -2.1073    0.5959 H   0  0  0  0  0  0  0  0  0  0  0  0
   -2.0156   -2.6783    0.9118 H   0  0  0  0  0  0  0  0  0  0  0  0
   -2.5519    1.8253   -0.4217 H   0  0  0  0  0  0  0  0  0  0  0  0
   -3.0677    0.4521   -1.4554 H   0  0  0  0  0  0  0  0  0  0  0  0
   -5.1189    1.2945   -0.7930 H   0  0  0  0  0  0  0  0  0  0  0  0
   -4.9076   -0.0121    0.4019 H   0  0  0  0  0  0  0  0  0  0  0  0
   -4.2835    3.0018    0.8562 H   0  0  0  0  0  0  0  0  0  0  0  0
   -4.1460    0.6273    2.6359 H   0  0  0  0  0  0  0  0  0  0  0  0
   -2.9601    1.7914    2.3034 H   0  0  0  0  0  0  0  0  0  0  0  0
   -7.6693    2.0059    2.9315 H   0  0  0  0  0  0  0  0  0  0  0  0
   -0.1392    0.9983    0.5956 H   0  0  0  0  0  0  0  0  0  0  0  0
    0.2017   -0.6882    1.0915 H   0  0  0  0  0  0  0  0  0  0  0  0
   -0.6719   -0.0186   -1.7919 H   0  0  0  0  0  0  0  0  0  0  0  0
    2.4103   -0.5245   -2.8066 H   0  0  0  0  0  0  0  0  0  0  0  0
    2.2202   -2.0991   -0.1863 H   0  0  0  0  0  0  0  0  0  0  0  0
    2.2613   -3.7786   -1.6435 H   0  0  0  0  0  0  0  0  0  0  0  0
   -0.0506   -2.5051   -0.5143 H   0  0  0  0  0  0  0  0  0  0  0  0
   -0.1998   -3.2250   -2.5546 H   0  0  0  0  0  0  0  0  0  0  0  0
    4.9289   -0.1229   -2.7597 H   0  0  0  0  0  0  0  0  0  0  0  0
    7.6947    1.1108    0.9884 H   0  0  0  0  0  0  0  0  0  0  0  0
    7.3559    1.4375    2.7274 H   0  0  0  0  0  0  0  0  0  0  0  0
    2.7708    0.5187    3.3218 H   0  0  0  0  0  0  0  0  0  0  0  0
  1  2  1  0
  2  3  1  0
  3  4  1  0
  4  5  1  0
  5  6  1  0
  5  7  1  0
  7  8  2  0
  7  9  1  0
  2 10  1  0
 11 10  1  0
 11 12  1  0
 12 13  1  0
 13 14  1  0
 14 15  1  0
 14 16  1  0
 16 11  1  0
 16 17  1  0
 13 18  1  0
 18 19  1  0
 19 20  2  0
 20 21  1  0
 21 22  2  0
 22 23  1  0
 22 24  1  0
 24 25  2  0
 25 26  1  0
 26 27  2  0
 27 18  1  0
 27 21  1  0
  1 28  1  0
  1 29  1  0
  1 30  1  0
  3 31  1  0
  3 32  1  0
  4 33  1  0
  4 34  1  0
  5 35  1  6
  6 36  1  0
  6 37  1  0
  9 38  1  0
 10 39  1  0
 10 40  1  0
 11 41  1  6
 13 42  1  6
 14 43  1  1
 15 44  1  0
 16 45  1  1
 17 46  1  0
 19 47  1  0
 23 48  1  0
 23 49  1  0
 25 50  1  0
M  CHG  1   2   1
M  END
> <ID>
HT0073

> <Class>
0.0

> <Clusters>
7

> <Fold>
4

$$$$