
     RDKit          3D

 13 13  0  0  0  0  0  0  0  0999 V2000
   -1.4433    0.9731    0.3364 N   0  0  0  0  0  0  0  0  0  0  0  0
   -0.5221    0.1857   -0.4851 C   0  0  2  0  0  0  0  0  0  0  0  0
   -0.1379   -1.1580    0.1741 C   0  0  0  0  0  0  0  0  0  0  0  0
    1.2730   -1.3327    0.1107 O   0  0  0  0  0  0  0  0  0  0  0  0
    1.7754   -0.0910   -0.1203 N   0  0  0  0  0  0  0  0  0  0  0  0
    0.7914    0.8090   -0.5530 C   0  0  0  0  0  0  0  0  0  0  0  0
    1.0285    1.9953   -0.9032 O   0  0  0  0  0  0  0  0  0  0  0  0
   -1.0535    1.0850    1.3017 H   0  0  0  0  0  0  0  0  0  0  0  0
   -2.3385    0.4393    0.4224 H   0  0  0  0  0  0  0  0  0  0  0  0
   -0.9321    0.0427   -1.5087 H   0  0  0  0  0  0  0  0  0  0  0  0
   -0.6355   -1.9948   -0.3604 H   0  0  0  0  0  0  0  0  0  0  0  0
   -0.4536   -1.1953    1.2397 H   0  0  0  0  0  0  0  0  0  0  0  0
    2.6483    0.2417    0.3458 H   0  0  0  0  0  0  0  0  0  0  0  0
  2  1  1  0
  2  3  1  0
  3  4  1  0
  4  5  1  0
  5  6  1  0
  6  2  1  0
  6  7  2  0
  1  8  1  0
  1  9  1  0
  2 10  1  6
  3 11  1  0
  3 12  1  0
  5 13  1  0
M  END
> <ID>
HT0570

> <Class>
0.0

> <Clusters>
144

> <Fold>
4

$$$$