
     RDKit          3D

 47 49  0  0  0  0  0  0  0  0999 V2000
   -6.4098   -2.6852   -0.7777 N   0  0  0  0  0  0  0  0  0  0  0  0
   -5.1077   -2.1389   -0.5652 C   0  0  0  0  0  0  0  0  0  0  0  0
   -4.1631   -2.8403    0.1304 N   0  0  0  0  0  0  0  0  0  0  0  0
   -2.9087   -2.3284    0.3474 C   0  0  0  0  0  0  0  0  0  0  0  0
   -2.5705   -1.0944   -0.1342 N   0  0  0  0  0  0  0  0  0  0  0  0
   -3.5075   -0.4042   -0.8280 C   0  0  0  0  0  0  0  0  0  0  0  0
   -4.7515   -0.8856   -1.0501 C   0  0  0  0  0  0  0  0  0  0  0  0
   -5.4883    0.0078   -1.7364 N   0  0  0  0  0  0  0  0  0  0  0  0
   -4.6197    1.0418   -1.9121 C   0  0  0  0  0  0  0  0  0  0  0  0
   -3.3933    0.8135   -1.3751 N   0  0  0  0  0  0  0  0  0  0  0  0
   -2.2656    1.7464   -1.3158 C   0  0  2  0  0  0  0  0  0  0  0  0
   -1.0575    1.0480   -1.5359 O   0  0  0  0  0  0  0  0  0  0  0  0
   -0.1589    1.4289   -0.5204 C   0  0  2  0  0  0  0  0  0  0  0  0
    0.7778    0.2570   -0.1962 C   0  0  0  0  0  0  0  0  0  0  0  0
    1.6565    0.5986    0.8578 O   0  0  0  0  0  0  0  0  0  0  0  0
    3.2147    0.9173    0.2362 P   0  0  0  0  0  0  0  0  0  0  0  0
    4.1239    1.3463    1.3664 O   0  0  0  0  0  0  0  0  0  0  0  0
    3.1267    2.1796   -0.8877 O   0  0  0  0  0  0  0  0  0  0  0  0
    3.8486   -0.4571   -0.5471 O   0  0  0  0  0  0  0  0  0  0  0  0
    3.9914   -1.7041    0.6072 P   0  0  0  0  0  0  0  0  0  0  0  0
    2.6363   -2.0216    1.1996 O   0  0  0  0  0  0  0  0  0  0  0  0
    4.5599   -3.0978   -0.1687 O   0  0  0  0  0  0  0  0  0  0  0  0
    5.0483   -1.2588    1.8659 O   0  0  0  0  0  0  0  0  0  0  0  0
    6.6225   -1.1904    1.2207 P   0  0  0  0  0  0  0  0  0  0  0  0
    7.5374   -0.5727    2.2534 O   0  0  0  0  0  0  0  0  0  0  0  0
    7.1777   -2.7513    0.8694 O   0  0  0  0  0  0  0  0  0  0  0  0
    6.6706   -0.2351   -0.1780 O   0  0  0  0  0  0  0  0  0  0  0  0
   -0.9751    1.8716    0.6854 C   0  0  1  0  0  0  0  0  0  0  0  0
   -0.2729    2.8202    1.4468 O   0  0  0  0  0  0  0  0  0  0  0  0
   -2.2175    2.4477    0.0482 C   0  0  1  0  0  0  0  0  0  0  0  0
   -2.0891    3.8370   -0.1237 O   0  0  0  0  0  0  0  0  0  0  0  0
   -7.1385   -2.1510   -1.3023 H   0  0  0  0  0  0  0  0  0  0  0  0
   -6.6479   -3.6338   -0.4112 H   0  0  0  0  0  0  0  0  0  0  0  0
   -2.1823   -2.9052    0.9036 H   0  0  0  0  0  0  0  0  0  0  0  0
   -4.8889    1.9586   -2.4207 H   0  0  0  0  0  0  0  0  0  0  0  0
   -2.3798    2.4970   -2.1302 H   0  0  0  0  0  0  0  0  0  0  0  0
    0.4468    2.2831   -0.8980 H   0  0  0  0  0  0  0  0  0  0  0  0
    0.1678   -0.6084    0.1389 H   0  0  0  0  0  0  0  0  0  0  0  0
    1.2831   -0.0833   -1.1305 H   0  0  0  0  0  0  0  0  0  0  0  0
    2.8255    2.9648   -0.3639 H   0  0  0  0  0  0  0  0  0  0  0  0
    3.9675   -3.2083   -0.9542 H   0  0  0  0  0  0  0  0  0  0  0  0
    7.0166   -3.2693    1.6980 H   0  0  0  0  0  0  0  0  0  0  0  0
    6.6432   -0.8790   -0.9295 H   0  0  0  0  0  0  0  0  0  0  0  0
   -1.2509    0.9917    1.3140 H   0  0  0  0  0  0  0  0  0  0  0  0
   -0.7936    2.9500    2.2816 H   0  0  0  0  0  0  0  0  0  0  0  0
   -3.1098    2.2192    0.6789 H   0  0  0  0  0  0  0  0  0  0  0  0
   -2.9945    4.1780   -0.3469 H   0  0  0  0  0  0  0  0  0  0  0  0
  1  2  1  0
  2  3  2  0
  3  4  1  0
  4  5  2  0
  5  6  1  0
  6  7  2  0
  7  2  1  0
  7  8  1  0
  8  9  2  0
  9 10  1  0
 10  6  1  0
 11 10  1  0
 11 12  1  0
 12 13  1  0
 13 14  1  0
 14 15  1  0
 15 16  1  0
 16 17  2  0
 16 18  1  0
 16 19  1  0
 19 20  1  0
 20 21  2  0
 20 22  1  0
 20 23  1  0
 23 24  1  0
 24 25  2  0
 24 26  1  0
 24 27  1  0
 13 28  1  0
 28 29  1  0
 28 30  1  0
 30 11  1  0
 30 31  1  0
  1 32  1  0
  1 33  1  0
  4 34  1  0
  9 35  1  0
 11 36  1  6
 13 37  1  6
 14 38  1  0
 14 39  1  0
 18 40  1  0
 22 41  1  0
 26 42  1  0
 27 43  1  0
 28 44  1  1
 29 45  1  0
 30 46  1  1
 31 47  1  0
M  END
> <ID>
HT0076

> <Class>
0.0

> <Clusters>
7

> <Fold>
4

$$$$