
     RDKit          3D

 60 63  0  0  0  0  0  0  0  0999 V2000
    0.7930    2.2179   -0.3866 O   0  0  0  0  0  0  0  0  0  0  0  0
    1.3127    1.1606   -0.0559 C   0  0  0  0  0  0  0  0  0  0  0  0
    2.3794    0.5507   -0.9352 C   0  0  0  0  0  0  0  0  0  0  0  0
    0.9391    0.4776    1.2577 C   0  0  0  0  0  0  0  0  0  0  0  0
   -0.1933    1.2072    1.9778 C   0  0  0  0  0  0  0  0  0  0  0  0
    0.5616   -1.0109    0.9769 C   0  0  0  0  0  0  0  0  0  0  0  0
    2.0690    0.4691    2.1031 O   0  0  0  0  0  0  0  0  0  0  0  0
    0.0812    2.0975    2.7748 O   0  0  0  0  0  0  0  0  0  0  0  0
   -1.6548    0.9163    1.7033 C   0  0  0  0  0  0  0  0  0  0  0  0
    1.5445   -1.7357   -0.0180 C   0  0  0  0  0  0  0  0  0  0  0  0
   -0.8906   -1.1661    0.4737 C   0  0  0  0  0  0  0  0  0  0  0  0
   -1.9207   -0.5860    1.4725 C   0  0  0  0  0  0  0  0  0  0  0  0
   -2.1707    1.7661    0.5698 C   0  0  0  0  0  0  0  0  0  0  0  0
    1.9457   -3.0598    0.5265 N   0  0  0  0  0  0  0  0  0  0  0  0
    2.7036   -0.8491   -0.4551 C   0  0  0  0  0  0  0  0  0  0  0  0
   -3.4046   -0.8442    1.0256 C   0  0  0  0  0  0  0  0  0  0  0  0
   -3.0543    1.1959   -0.4818 C   0  0  0  0  0  0  0  0  0  0  0  0
   -1.9625    3.0093    0.6095 O   0  0  0  0  0  0  0  0  0  0  0  0
    2.3521   -4.0137   -0.5174 C   0  0  0  0  0  0  0  0  0  0  0  0
    2.9080   -3.0159    1.6426 C   0  0  0  0  0  0  0  0  0  0  0  0
    3.8535   -1.2650   -0.4703 O   0  0  0  0  0  0  0  0  0  0  0  0
   -3.7789    0.0071   -0.2021 C   0  0  0  0  0  0  0  0  0  0  0  0
   -4.3733   -0.5002    2.1725 C   0  0  0  0  0  0  0  0  0  0  0  0
   -3.5537   -2.2231    0.7645 O   0  0  0  0  0  0  0  0  0  0  0  0
   -3.2713    1.8699   -1.7065 C   0  0  0  0  0  0  0  0  0  0  0  0
   -4.8595   -0.3496   -1.0531 C   0  0  0  0  0  0  0  0  0  0  0  0
   -2.4536    2.9156   -2.1440 O   0  0  0  0  0  0  0  0  0  0  0  0
   -4.3107    1.4708   -2.5461 C   0  0  0  0  0  0  0  0  0  0  0  0
   -5.1179    0.3953   -2.2055 C   0  0  0  0  0  0  0  0  0  0  0  0
   -5.9538   -1.6949   -0.7199 Cl  0  0  0  0  0  0  0  0  0  0  0  0
    3.5930    1.4487   -0.9530 C   0  0  0  0  0  0  0  0  0  0  0  0
    4.2684    1.6071    0.1036 O   0  0  0  0  0  0  0  0  0  0  0  0
    3.9603    2.1451   -2.1516 N   0  0  0  0  0  0  0  0  0  0  0  0
    5.0621    3.1028   -2.1790 C   0  0  0  0  0  0  0  0  0  0  0  0
    4.7516    4.1942   -1.3638 O   0  0  0  0  0  0  0  0  0  0  0  0
    1.9616    0.4609   -1.9616 H   0  0  0  0  0  0  0  0  0  0  0  0
    0.5991   -1.5377    1.9587 H   0  0  0  0  0  0  0  0  0  0  0  0
    2.4230    1.3959    2.1681 H   0  0  0  0  0  0  0  0  0  0  0  0
   -2.2154    1.2192    2.6137 H   0  0  0  0  0  0  0  0  0  0  0  0
    0.9841   -1.9104   -0.9650 H   0  0  0  0  0  0  0  0  0  0  0  0
   -1.0707   -2.2548    0.3474 H   0  0  0  0  0  0  0  0  0  0  0  0
   -0.9999   -0.6834   -0.5224 H   0  0  0  0  0  0  0  0  0  0  0  0
   -1.7623   -1.1146    2.4414 H   0  0  0  0  0  0  0  0  0  0  0  0
    1.5455   -4.1220   -1.2738 H   0  0  0  0  0  0  0  0  0  0  0  0
    2.5190   -5.0188   -0.0696 H   0  0  0  0  0  0  0  0  0  0  0  0
    3.2872   -3.6870   -1.0237 H   0  0  0  0  0  0  0  0  0  0  0  0
    2.5189   -3.6397    2.4723 H   0  0  0  0  0  0  0  0  0  0  0  0
    3.0466   -1.9884    2.0425 H   0  0  0  0  0  0  0  0  0  0  0  0
    3.9048   -3.4069    1.3469 H   0  0  0  0  0  0  0  0  0  0  0  0
   -4.3877    0.5898    2.3849 H   0  0  0  0  0  0  0  0  0  0  0  0
   -4.0847   -1.0465    3.0967 H   0  0  0  0  0  0  0  0  0  0  0  0
   -5.4118   -0.8019    1.9124 H   0  0  0  0  0  0  0  0  0  0  0  0
   -3.2318   -2.4118   -0.1558 H   0  0  0  0  0  0  0  0  0  0  0  0
   -1.5597    3.1382   -1.7229 H   0  0  0  0  0  0  0  0  0  0  0  0
   -4.4947    2.0039   -3.4702 H   0  0  0  0  0  0  0  0  0  0  0  0
   -5.9372    0.1197   -2.8590 H   0  0  0  0  0  0  0  0  0  0  0  0
    3.4318    1.9699   -3.0344 H   0  0  0  0  0  0  0  0  0  0  0  0
    5.9899    2.6061   -1.8233 H   0  0  0  0  0  0  0  0  0  0  0  0
    5.2257    3.4504   -3.2207 H   0  0  0  0  0  0  0  0  0  0  0  0
    5.5643    4.7592   -1.3468 H   0  0  0  0  0  0  0  0  0  0  0  0
  1  2  2  0
  2  3  1  0
  4  2  1  0
  5  4  1  0
  4  6  1  0
  4  7  1  0
  8  5  2  0
  5  9  1  0
 10  6  1  0
  6 11  1  0
 12  9  1  0
  9 13  1  0
 14 10  1  0
 15 10  1  0
 11 12  1  0
 16 12  1  0
 13 17  1  0
 13 18  2  0
 19 14  1  0
 14 20  1  0
  3 15  1  0
 15 21  2  0
 22 16  1  0
 16 23  1  0
 16 24  1  0
 22 17  2  0
 17 25  1  0
 26 22  1  0
 25 27  1  0
 25 28  2  0
 29 26  2  0
 26 30  1  0
 28 29  1  0
  3 31  1  0
 31 32  2  0
 31 33  1  0
 33 34  1  0
 34 35  1  0
  3 36  1  0
  6 37  1  0
  7 38  1  0
  9 39  1  0
 10 40  1  0
 11 41  1  0
 11 42  1  0
 12 43  1  0
 19 44  1  0
 19 45  1  0
 19 46  1  0
 20 47  1  0
 20 48  1  0
 20 49  1  0
 23 50  1  0
 23 51  1  0
 23 52  1  0
 24 53  1  0
 27 54  1  0
 28 55  1  0
 29 56  1  0
 33 57  1  0
 34 58  1  0
 34 59  1  0
 35 60  1  0
M  END
> <ID>
HT0529

> <Class>
0.0

> <Clusters>
225

> <Fold>
4

$$$$