
     RDKit          3D

 37 39  0  0  0  0  0  0  0  0999 V2000
    5.7819    2.1222    0.0754 N   0  0  0  0  0  0  0  0  0  0  0  0
    4.9270    0.9986    0.2865 C   0  0  0  0  0  0  0  0  0  0  0  0
    5.4404   -0.1981    0.7021 N   0  0  0  0  0  0  0  0  0  0  0  0
    4.6352   -1.2913    0.9013 C   0  0  0  0  0  0  0  0  0  0  0  0
    3.2872   -1.2084    0.6874 N   0  0  0  0  0  0  0  0  0  0  0  0
    2.7815   -0.0182    0.2825 C   0  0  0  0  0  0  0  0  0  0  0  0
    3.5548    1.0717    0.0751 C   0  0  0  0  0  0  0  0  0  0  0  0
    2.8086    2.1052   -0.3587 N   0  0  0  0  0  0  0  0  0  0  0  0
    1.5546    1.5750   -0.3958 C   0  0  0  0  0  0  0  0  0  0  0  0
    1.5063    0.2771    0.0045 N   0  0  0  0  0  0  0  0  0  0  0  0
    0.3557   -0.6279   -0.0065 C   0  0  0  0  0  0  0  0  0  0  0  0
   -0.8228    0.0790    0.3299 O   0  0  0  0  0  0  0  0  0  0  0  0
   -1.7341   -0.0777   -0.7356 C   0  0  0  0  0  0  0  0  0  0  0  0
   -3.1705   -0.1542   -0.2053 C   0  0  0  0  0  0  0  0  0  0  0  0
   -3.5050    1.0774    0.3904 O   0  0  0  0  0  0  0  0  0  0  0  0
   -5.1167    0.9900    0.9416 P   0  0  0  0  0  0  0  0  0  0  0  0
   -6.0569    0.8367   -0.2332 O   0  0  0  0  0  0  0  0  0  0  0  0
   -5.3064   -0.3218    1.9958 O   0  0  0  0  0  0  0  0  0  0  0  0
   -5.4927    2.4197    1.7639 O   0  0  0  0  0  0  0  0  0  0  0  0
   -1.3127   -1.2970   -1.5575 C   0  0  0  0  0  0  0  0  0  0  0  0
   -1.8835   -2.4971   -1.0829 O   0  0  0  0  0  0  0  0  0  0  0  0
    0.1883   -1.2742   -1.3820 C   0  0  0  0  0  0  0  0  0  0  0  0
    0.7512   -2.5605   -1.4094 O   0  0  0  0  0  0  0  0  0  0  0  0
    5.3965    3.0389   -0.2434 H   0  0  0  0  0  0  0  0  0  0  0  0
    6.8095    2.0375    0.2397 H   0  0  0  0  0  0  0  0  0  0  0  0
    5.0702   -2.2258    1.2277 H   0  0  0  0  0  0  0  0  0  0  0  0
    0.6883    2.1319   -0.7287 H   0  0  0  0  0  0  0  0  0  0  0  0
    0.5039   -1.4167    0.7649 H   0  0  0  0  0  0  0  0  0  0  0  0
   -1.6579    0.8223   -1.3884 H   0  0  0  0  0  0  0  0  0  0  0  0
   -3.2360   -0.9760    0.5427 H   0  0  0  0  0  0  0  0  0  0  0  0
   -3.8467   -0.3709   -1.0640 H   0  0  0  0  0  0  0  0  0  0  0  0
   -6.2394   -0.2519    2.3208 H   0  0  0  0  0  0  0  0  0  0  0  0
   -4.8436    2.4573    2.5110 H   0  0  0  0  0  0  0  0  0  0  0  0
   -1.5873   -1.1666   -2.6271 H   0  0  0  0  0  0  0  0  0  0  0  0
   -1.6093   -2.6213   -0.1363 H   0  0  0  0  0  0  0  0  0  0  0  0
    0.6471   -0.6315   -2.1712 H   0  0  0  0  0  0  0  0  0  0  0  0
    0.7333   -2.8534   -2.3577 H   0  0  0  0  0  0  0  0  0  0  0  0
  1  2  1  0
  2  3  2  0
  3  4  1  0
  4  5  2  0
  5  6  1  0
  6  7  2  0
  7  2  1  0
  7  8  1  0
  8  9  2  0
  9 10  1  0
 10  6  1  0
 10 11  1  0
 11 12  1  0
 12 13  1  0
 13 14  1  0
 14 15  1  0
 15 16  1  0
 16 17  2  0
 16 18  1  0
 16 19  1  0
 13 20  1  0
 20 21  1  0
 20 22  1  0
 22 11  1  0
 22 23  1  0
  1 24  1  0
  1 25  1  0
  4 26  1  0
  9 27  1  0
 11 28  1  0
 13 29  1  0
 14 30  1  0
 14 31  1  0
 18 32  1  0
 19 33  1  0
 20 34  1  0
 21 35  1  0
 22 36  1  0
 23 37  1  0
M  END
> <ID>
HT0075

> <Class>
0.0

> <Clusters>
7

> <Fold>
4

$$$$