
     RDKit          3D

 15 14  0  0  0  0  0  0  0  0999 V2000
    2.0039    1.3491   -0.1086 O   0  0  0  0  0  0  0  0  0  0  0  0
    1.3797    0.0144    0.7269 P   0  0  0  0  0  0  0  0  0  0  0  0
    0.8870    0.4534    2.0878 O   0  0  0  0  0  0  0  0  0  0  0  0
    2.6088   -1.1303    0.9353 O   0  0  0  0  0  0  0  0  0  0  0  0
    0.0108   -0.7343   -0.2176 C   0  0  0  0  0  0  0  0  0  0  0  0
    0.6086   -1.2511   -1.8134 Cl  0  0  0  0  0  0  0  0  0  0  0  0
   -0.5940   -2.1617    0.6575 Cl  0  0  0  0  0  0  0  0  0  0  0  0
   -1.3500    0.4610   -0.4381 P   0  0  0  0  0  0  0  0  0  0  0  0
   -0.8854    1.6178   -1.2940 O   0  0  0  0  0  0  0  0  0  0  0  0
   -2.6594   -0.3002   -1.1952 O   0  0  0  0  0  0  0  0  0  0  0  0
   -1.8523    1.0531    1.0658 O   0  0  0  0  0  0  0  0  0  0  0  0
    1.4109    2.1051    0.1313 H   0  0  0  0  0  0  0  0  0  0  0  0
    3.0291   -1.2177    0.0430 H   0  0  0  0  0  0  0  0  0  0  0  0
   -2.3321   -0.5343   -2.1001 H   0  0  0  0  0  0  0  0  0  0  0  0
   -2.2656    0.2759    1.5193 H   0  0  0  0  0  0  0  0  0  0  0  0
  1  2  1  0
  2  3  2  0
  2  4  1  0
  2  5  1  0
  5  6  1  0
  5  7  1  0
  5  8  1  0
  8  9  2  0
  8 10  1  0
  8 11  1  0
  1 12  1  0
  4 13  1  0
 10 14  1  0
 11 15  1  0
M  END
> <ID>
HT0520

> <Class>
0.0

> <Clusters>
188

> <Fold>
4

$$$$