
     RDKit          3D

 24 24  0  0  0  0  0  0  0  0999 V2000
    3.2548    0.5604   -0.5993 O   0  0  0  0  0  0  0  0  0  0  0  0
    2.4970   -0.2780    0.2314 C   0  0  0  0  0  0  0  0  0  0  0  0
    1.0191   -0.2993   -0.1945 C   0  0  1  0  0  0  0  0  0  0  0  0
    0.3753   -1.3394    0.5242 O   0  0  0  0  0  0  0  0  0  0  0  0
   -0.9505   -1.5246    0.0584 C   0  0  0  0  0  0  0  0  0  0  0  0
   -1.5123   -2.6286    0.7139 O   0  0  0  0  0  0  0  0  0  0  0  0
   -1.7979   -0.2764    0.3705 C   0  0  2  0  0  0  0  0  0  0  0  0
   -3.1262   -0.4469   -0.0593 O   0  0  0  0  0  0  0  0  0  0  0  0
   -1.1667    0.9669   -0.2795 C   0  0  1  0  0  0  0  0  0  0  0  0
   -1.8450    2.1140    0.1640 O   0  0  0  0  0  0  0  0  0  0  0  0
    0.3246    1.0575    0.0917 C   0  0  2  0  0  0  0  0  0  0  0  0
    0.9190    2.0797   -0.6690 O   0  0  0  0  0  0  0  0  0  0  0  0
    3.3797    0.0752   -1.4565 H   0  0  0  0  0  0  0  0  0  0  0  0
    2.5839    0.0789    1.2799 H   0  0  0  0  0  0  0  0  0  0  0  0
    2.9115   -1.3118    0.1991 H   0  0  0  0  0  0  0  0  0  0  0  0
    0.9900   -0.5135   -1.2893 H   0  0  0  0  0  0  0  0  0  0  0  0
   -0.9597   -1.7223   -1.0414 H   0  0  0  0  0  0  0  0  0  0  0  0
   -1.0022   -3.4243    0.4102 H   0  0  0  0  0  0  0  0  0  0  0  0
   -1.8107   -0.1314    1.4740 H   0  0  0  0  0  0  0  0  0  0  0  0
   -3.1093   -0.5990   -1.0405 H   0  0  0  0  0  0  0  0  0  0  0  0
   -1.2600    0.8755   -1.3887 H   0  0  0  0  0  0  0  0  0  0  0  0
   -1.6501    2.8351   -0.4899 H   0  0  0  0  0  0  0  0  0  0  0  0
    0.3981    1.2803    1.1847 H   0  0  0  0  0  0  0  0  0  0  0  0
    1.5376    2.5720   -0.0686 H   0  0  0  0  0  0  0  0  0  0  0  0
  1  2  1  0
  3  2  1  0
  3  4  1  0
  4  5  1  0
  5  6  1  0
  5  7  1  0
  7  8  1  0
  7  9  1  0
  9 10  1  0
  9 11  1  0
 11  3  1  0
 11 12  1  0
  1 13  1  0
  2 14  1  0
  2 15  1  0
  3 16  1  6
  5 17  1  0
  6 18  1  0
  7 19  1  1
  8 20  1  0
  9 21  1  6
 10 22  1  0
 11 23  1  1
 12 24  1  0
M  END
> <ID>
HT0630

> <Class>
0.0

> <Clusters>
70

> <Fold>
4

$$$$