
     RDKit          3D

 18 17  0  0  0  0  0  0  0  0999 V2000
   -1.6257    1.1383    0.1901 C   0  0  0  0  0  0  0  0  0  0  0  0
   -0.6687   -0.0135   -0.0127 C   0  0  0  0  0  0  0  0  0  0  0  0
    0.6793    0.1918   -0.0820 C   0  0  0  0  0  0  0  0  0  0  0  0
    1.6443   -0.9477   -0.3069 C   0  0  0  0  0  0  0  0  0  0  0  0
    1.2818    1.5414    0.0839 C   0  0  0  0  0  0  0  0  0  0  0  0
    0.7735    2.5458   -0.4807 O   0  0  0  0  0  0  0  0  0  0  0  0
    2.4429    1.7110    0.8347 O   0  0  0  0  0  0  0  0  0  0  0  0
   -1.2754   -1.3676   -0.1079 C   0  0  0  0  0  0  0  0  0  0  0  0
   -0.6923   -2.3775    0.3705 O   0  0  0  0  0  0  0  0  0  0  0  0
   -2.5292   -1.5217   -0.6934 O   0  0  0  0  0  0  0  0  0  0  0  0
   -2.6638    0.7844    0.3637 H   0  0  0  0  0  0  0  0  0  0  0  0
   -1.3293    1.7312    1.0813 H   0  0  0  0  0  0  0  0  0  0  0  0
   -1.6372    1.7872   -0.7102 H   0  0  0  0  0  0  0  0  0  0  0  0
    2.6395   -0.5707   -0.6256 H   0  0  0  0  0  0  0  0  0  0  0  0
    1.2831   -1.6145   -1.1182 H   0  0  0  0  0  0  0  0  0  0  0  0
    1.7738   -1.5249    0.6325 H   0  0  0  0  0  0  0  0  0  0  0  0
    2.8703    0.9404    1.3342 H   0  0  0  0  0  0  0  0  0  0  0  0
   -2.9670   -2.4333   -0.7535 H   0  0  0  0  0  0  0  0  0  0  0  0
  1  2  1  0
  2  3  2  0
  3  4  1  0
  3  5  1  0
  5  6  2  0
  5  7  1  0
  2  8  1  0
  8  9  2  0
  8 10  1  0
  1 11  1  0
  1 12  1  0
  1 13  1  0
  4 14  1  0
  4 15  1  0
  4 16  1  0
  7 17  1  0
 10 18  1  0
M  END
> <ID>
HT0679

> <Class>
0.0

> <Clusters>
80

> <Fold>
4

$$$$