
     RDKit          3D

 11 10  0  0  0  0  0  0  0  0999 V2000
   -1.4172   -0.5540    0.2140 C   0  0  0  0  0  0  0  0  0  0  0  0
   -0.0006    0.1369   -0.6075 S   0  0  0  0  0  0  0  0  0  0  0  0
    1.4892   -0.2577    0.2780 C   0  0  0  0  0  0  0  0  0  0  0  0
   -0.1679    1.8038   -0.7257 O   0  0  0  0  0  0  0  0  0  0  0  0
   -2.3340   -0.3060   -0.3592 H   0  0  0  0  0  0  0  0  0  0  0  0
   -1.4955   -0.1316    1.2369 H   0  0  0  0  0  0  0  0  0  0  0  0
   -1.3080   -1.6563    0.2764 H   0  0  0  0  0  0  0  0  0  0  0  0
    2.3611    0.1727   -0.2559 H   0  0  0  0  0  0  0  0  0  0  0  0
    1.4360    0.1673    1.3015 H   0  0  0  0  0  0  0  0  0  0  0  0
    1.6019   -1.3596    0.3405 H   0  0  0  0  0  0  0  0  0  0  0  0
   -0.1649    1.9845   -1.6992 H   0  0  0  0  0  0  0  0  0  0  0  0
  1  2  1  0
  2  3  1  0
  2  4  1  0
  1  5  1  0
  1  6  1  0
  1  7  1  0
  3  8  1  0
  3  9  1  0
  3 10  1  0
  4 11  1  0
M  CHG  1   2   1
M  END
> <ID>
HT0678

> <Class>
0.0

> <Clusters>
244

> <Fold>
4

$$$$