
     RDKit          3D

 53 56  0  0  0  0  0  0  0  0999 V2000
   -1.9406    3.4553   -0.0700 O   0  0  0  0  0  0  0  0  0  0  0  0
   -2.1239    2.2477   -0.1593 C   0  0  0  0  0  0  0  0  0  0  0  0
   -3.5260    1.6967   -0.1304 C   0  0  0  0  0  0  0  0  0  0  0  0
   -0.9284    1.3346   -0.4070 C   0  0  2  0  0  0  0  0  0  0  0  0
   -1.3529   -0.1697   -0.5989 C   0  0  1  0  0  0  0  0  0  0  0  0
    0.0816    1.4087    0.7337 C   0  0  0  0  0  0  0  0  0  0  0  0
   -0.3188    1.7675   -1.6035 O   0  0  0  0  0  0  0  0  0  0  0  0
   -0.1270   -1.1522   -0.5565 C   0  0  0  0  0  0  0  0  0  0  0  0
   -2.4669   -0.6366    0.4176 C   0  0  2  0  0  0  0  0  0  0  0  0
    1.3001    0.5099    0.7141 C   0  0  0  0  0  0  0  0  0  0  0  0
   -0.1008    2.1487    1.6910 O   0  0  0  0  0  0  0  0  0  0  0  0
    1.2526   -0.4620   -0.4788 C   0  0  1  0  0  0  0  0  0  0  0  0
   -3.1651   -1.9018    0.0476 N   0  0  0  0  0  0  0  0  0  0  0  0
   -3.5241    0.4140    0.6574 C   0  0  0  0  0  0  0  0  0  0  0  0
    2.5957    1.2678    0.6266 C   0  0  0  0  0  0  0  0  0  0  0  0
    2.4317   -1.4712   -0.4203 C   0  0  1  0  0  0  0  0  0  0  0  0
   -3.6364   -1.9848   -1.3446 C   0  0  0  0  0  0  0  0  0  0  0  0
   -2.4866   -3.1392    0.4629 C   0  0  0  0  0  0  0  0  0  0  0  0
   -4.3963    0.1934    1.4873 O   0  0  0  0  0  0  0  0  0  0  0  0
    2.5976    2.5288    0.5935 O   0  0  0  0  0  0  0  0  0  0  0  0
    3.8530    0.4966    0.4468 C   0  0  0  0  0  0  0  0  0  0  0  0
    3.7785   -0.8104   -0.1160 C   0  0  0  0  0  0  0  0  0  0  0  0
    2.1848   -2.5139    0.4924 O   0  0  0  0  0  0  0  0  0  0  0  0
    5.1215    1.0340    0.7895 C   0  0  0  0  0  0  0  0  0  0  0  0
    4.9719   -1.5252   -0.3646 C   0  0  0  0  0  0  0  0  0  0  0  0
    6.2819    0.3182    0.4901 C   0  0  0  0  0  0  0  0  0  0  0  0
    5.2748    2.2502    1.4594 O   0  0  0  0  0  0  0  0  0  0  0  0
    4.9601   -3.1525   -1.0411 Cl  0  0  0  0  0  0  0  0  0  0  0  0
    6.2091   -0.9480   -0.0804 C   0  0  0  0  0  0  0  0  0  0  0  0
   -4.5179    2.6986    0.4186 C   0  0  0  0  0  0  0  0  0  0  0  0
   -5.4779    3.0846   -0.3004 O   0  0  0  0  0  0  0  0  0  0  0  0
   -4.3798    3.2129    1.7449 N   0  0  0  0  0  0  0  0  0  0  0  0
   -3.8080    1.4511   -1.1774 H   0  0  0  0  0  0  0  0  0  0  0  0
   -1.7769   -0.2146   -1.6241 H   0  0  0  0  0  0  0  0  0  0  0  0
    0.1048    2.6518   -1.4397 H   0  0  0  0  0  0  0  0  0  0  0  0
   -0.1546   -1.8126   -1.4507 H   0  0  0  0  0  0  0  0  0  0  0  0
   -0.1959   -1.8028    0.3374 H   0  0  0  0  0  0  0  0  0  0  0  0
   -1.9743   -0.7613    1.4083 H   0  0  0  0  0  0  0  0  0  0  0  0
    1.2961   -0.0683    1.6632 H   0  0  0  0  0  0  0  0  0  0  0  0
    1.3980    0.1102   -1.4220 H   0  0  0  0  0  0  0  0  0  0  0  0
    2.4941   -1.9246   -1.4337 H   0  0  0  0  0  0  0  0  0  0  0  0
   -4.4002   -2.7866   -1.4307 H   0  0  0  0  0  0  0  0  0  0  0  0
   -4.1202   -1.0346   -1.6540 H   0  0  0  0  0  0  0  0  0  0  0  0
   -2.8022   -2.2212   -2.0401 H   0  0  0  0  0  0  0  0  0  0  0  0
   -3.2275   -3.9654    0.5073 H   0  0  0  0  0  0  0  0  0  0  0  0
   -1.6937   -3.4316   -0.2572 H   0  0  0  0  0  0  0  0  0  0  0  0
   -2.0528   -3.0371    1.4803 H   0  0  0  0  0  0  0  0  0  0  0  0
    2.2548   -2.1399    1.4087 H   0  0  0  0  0  0  0  0  0  0  0  0
    7.2509    0.7352    0.7349 H   0  0  0  0  0  0  0  0  0  0  0  0
    4.5192    2.7347    1.9232 H   0  0  0  0  0  0  0  0  0  0  0  0
    7.1226   -1.4929   -0.2831 H   0  0  0  0  0  0  0  0  0  0  0  0
   -3.5908    2.9062    2.3563 H   0  0  0  0  0  0  0  0  0  0  0  0
   -5.0689    3.9036    2.1166 H   0  0  0  0  0  0  0  0  0  0  0  0
  1  2  2  0
  2  3  1  0
  4  2  1  0
  4  5  1  0
  6  4  1  0
  4  7  1  6
  5  8  1  0
  9  5  1  0
 10  6  1  0
  6 11  2  0
 12  8  1  0
  9 13  1  0
 14  9  1  0
 15 10  1  0
 10 12  1  0
 12 16  1  0
 17 13  1  0
 13 18  1  0
  3 14  1  0
 14 19  2  0
 20 15  2  0
 21 15  1  0
 16 22  1  0
 16 23  1  0
 24 21  2  0
 21 22  1  0
 22 25  2  0
 26 24  1  0
 24 27  1  0
 25 28  1  0
 25 29  1  0
 29 26  2  0
  3 30  1  0
 30 31  2  0
 30 32  1  0
  3 33  1  0
  5 34  1  6
  7 35  1  0
  8 36  1  0
  8 37  1  0
  9 38  1  1
 10 39  1  0
 12 40  1  6
 16 41  1  6
 17 42  1  0
 17 43  1  0
 17 44  1  0
 18 45  1  0
 18 46  1  0
 18 47  1  0
 23 48  1  0
 26 49  1  0
 27 50  1  0
 29 51  1  0
 32 52  1  0
 32 53  1  0
M  END
> <ID>
HT0607

> <Class>
0.0

> <Clusters>
225

> <Fold>
4

$$$$