
     RDKit          3D

 22 22  0  0  0  0  0  0  0  0999 V2000
   -3.8768    0.1894   -0.2034 N   0  0  0  0  0  0  0  0  0  0  0  0
   -2.4796   -0.1606   -0.4385 C   0  0  0  0  0  0  0  0  0  0  0  0
   -1.5844    0.5130    0.6057 C   0  0  0  0  0  0  0  0  0  0  0  0
   -0.1338    0.1724    0.3776 C   0  0  0  0  0  0  0  0  0  0  0  0
    0.3376   -1.1234    0.6418 C   0  0  0  0  0  0  0  0  0  0  0  0
    1.6825   -1.4407    0.4358 C   0  0  0  0  0  0  0  0  0  0  0  0
    2.5747   -0.4671   -0.0335 C   0  0  0  0  0  0  0  0  0  0  0  0
    3.9160   -0.7864   -0.2387 O   0  0  0  0  0  0  0  0  0  0  0  0
    2.1114    0.8336   -0.2958 C   0  0  0  0  0  0  0  0  0  0  0  0
    2.9739    1.8251   -0.7624 O   0  0  0  0  0  0  0  0  0  0  0  0
    0.7633    1.1479   -0.0879 C   0  0  0  0  0  0  0  0  0  0  0  0
   -4.4588   -0.3519   -0.8829 H   0  0  0  0  0  0  0  0  0  0  0  0
   -4.0059    1.1997   -0.4427 H   0  0  0  0  0  0  0  0  0  0  0  0
   -2.1772    0.1618   -1.4606 H   0  0  0  0  0  0  0  0  0  0  0  0
   -2.3675   -1.2649   -0.3702 H   0  0  0  0  0  0  0  0  0  0  0  0
   -1.7359    1.6137    0.5533 H   0  0  0  0  0  0  0  0  0  0  0  0
   -1.8826    0.1851    1.6254 H   0  0  0  0  0  0  0  0  0  0  0  0
   -0.3363   -1.8867    1.0106 H   0  0  0  0  0  0  0  0  0  0  0  0
    2.0312   -2.4445    0.6429 H   0  0  0  0  0  0  0  0  0  0  0  0
    4.2738   -1.7169   -0.0566 H   0  0  0  0  0  0  0  0  0  0  0  0
    3.9573    1.6482   -0.9287 H   0  0  0  0  0  0  0  0  0  0  0  0
    0.4171    2.1532   -0.2953 H   0  0  0  0  0  0  0  0  0  0  0  0
  1  2  1  0
  2  3  1  0
  3  4  1  0
  4  5  2  0
  5  6  1  0
  6  7  2  0
  7  8  1  0
  7  9  1  0
  9 10  1  0
  9 11  2  0
 11  4  1  0
  1 12  1  0
  1 13  1  0
  2 14  1  0
  2 15  1  0
  3 16  1  0
  3 17  1  0
  5 18  1  0
  6 19  1  0
  8 20  1  0
 10 21  1  0
 11 22  1  0
M  END
> <ID>
HT0709

> <Class>
0.0

> <Clusters>
146

> <Fold>
4

$$$$