
     RDKit          3D

 92 93  0  0  0  0  0  0  0  0999 V2000
   -0.2797    2.2191   -1.1923 C   0  0  0  0  0  0  0  0  0  0  0  0
    0.9343    1.3965   -1.2052 N   0  0  0  0  0  0  0  0  0  0  0  0
    0.9300    0.0711   -1.8414 C   0  0  0  0  0  0  0  0  0  0  0  0
    1.7419    0.0593   -3.1470 C   0  0  0  0  0  0  0  0  0  0  0  0
    1.1636    0.9502   -4.2653 C   0  0  0  0  0  0  0  0  0  0  0  0
   -0.2912    0.6456   -4.6721 C   0  0  0  0  0  0  0  0  0  0  0  0
   -0.5394   -0.8275   -5.0245 C   0  0  0  0  0  0  0  0  0  0  0  0
   -1.9850   -1.0332   -5.5009 C   0  0  0  0  0  0  0  0  0  0  0  0
   -2.3247   -2.5084   -5.7822 C   0  0  0  0  0  0  0  0  0  0  0  0
   -2.2445   -3.4460   -4.5610 C   0  0  0  0  0  0  0  0  0  0  0  0
   -3.1426   -3.0020   -3.3949 C   0  0  0  0  0  0  0  0  0  0  0  0
   -3.1798   -4.0654   -2.2945 C   0  0  0  0  0  0  0  0  0  0  0  0
   -4.0797   -3.6514   -1.2099 N   0  0  0  0  0  0  0  0  0  0  0  0
   -5.4471   -4.1729   -1.1501 C   0  0  0  0  0  0  0  0  0  0  0  0
   -3.6125   -2.7681   -0.1730 C   0  0  0  0  0  0  0  0  0  0  0  0
   -4.3604   -2.5003    0.8069 O   0  0  0  0  0  0  0  0  0  0  0  0
   -2.3047   -2.2645   -0.2257 O   0  0  0  0  0  0  0  0  0  0  0  0
   -1.7690   -1.2947    0.6351 C   0  0  0  0  0  0  0  0  0  0  0  0
   -0.4106   -1.3688    0.9397 C   0  0  0  0  0  0  0  0  0  0  0  0
    0.1762   -0.4285    1.7799 C   0  0  0  0  0  0  0  0  0  0  0  0
   -0.5918    0.5947    2.3348 C   0  0  0  0  0  0  0  0  0  0  0  0
   -1.9833    0.7010    2.0711 C   0  0  0  0  0  0  0  0  0  0  0  0
   -2.5435   -0.2473    1.1692 C   0  0  0  0  0  0  0  0  0  0  0  0
   -2.7796    1.7716    2.7064 N   0  0  0  0  0  0  0  0  0  0  0  0
   -2.6228    1.7003    4.1809 C   0  0  0  0  0  0  0  0  0  0  0  0
   -4.2339    1.6749    2.4140 C   0  0  0  0  0  0  0  0  0  0  0  0
   -2.3095    3.0919    2.2260 C   0  0  0  0  0  0  0  0  0  0  0  0
    2.0850    1.8315   -0.4589 C   0  0  0  0  0  0  0  0  0  0  0  0
    2.0465    2.9132    0.1911 O   0  0  0  0  0  0  0  0  0  0  0  0
    3.2545    1.0633   -0.4661 O   0  0  0  0  0  0  0  0  0  0  0  0
    4.1887    1.0318    0.5773 C   0  0  0  0  0  0  0  0  0  0  0  0
    5.5189    0.7524    0.2686 C   0  0  0  0  0  0  0  0  0  0  0  0
    6.4760    0.7000    1.2767 C   0  0  0  0  0  0  0  0  0  0  0  0
    6.1082    0.8998    2.6083 C   0  0  0  0  0  0  0  0  0  0  0  0
    4.7606    1.1487    2.9739 C   0  0  0  0  0  0  0  0  0  0  0  0
    3.8116    1.2275    1.9186 C   0  0  0  0  0  0  0  0  0  0  0  0
    4.4005    1.3318    4.3945 N   0  0  0  0  0  0  0  0  0  0  0  0
    5.0694    2.5465    4.9165 C   0  0  0  0  0  0  0  0  0  0  0  0
    2.9379    1.4928    4.6166 C   0  0  0  0  0  0  0  0  0  0  0  0
    4.8404    0.1493    5.1771 C   0  0  0  0  0  0  0  0  0  0  0  0
   -1.1363    1.7003   -1.6703 H   0  0  0  0  0  0  0  0  0  0  0  0
   -0.5655    2.4485   -0.1461 H   0  0  0  0  0  0  0  0  0  0  0  0
   -0.0905    3.1681   -1.7386 H   0  0  0  0  0  0  0  0  0  0  0  0
    1.3785   -0.6710   -1.1472 H   0  0  0  0  0  0  0  0  0  0  0  0
   -0.1066   -0.2810   -2.0254 H   0  0  0  0  0  0  0  0  0  0  0  0
    1.8238   -0.9879   -3.5095 H   0  0  0  0  0  0  0  0  0  0  0  0
    2.7797    0.3935   -2.9350 H   0  0  0  0  0  0  0  0  0  0  0  0
    1.8109    0.8434   -5.1636 H   0  0  0  0  0  0  0  0  0  0  0  0
    1.2251    2.0145   -3.9496 H   0  0  0  0  0  0  0  0  0  0  0  0
   -0.5359    1.2746   -5.5560 H   0  0  0  0  0  0  0  0  0  0  0  0
   -0.9799    0.9518   -3.8602 H   0  0  0  0  0  0  0  0  0  0  0  0
    0.1662   -1.1475   -5.8221 H   0  0  0  0  0  0  0  0  0  0  0  0
   -0.3640   -1.4439   -4.1220 H   0  0  0  0  0  0  0  0  0  0  0  0
   -2.6979   -0.6169   -4.7573 H   0  0  0  0  0  0  0  0  0  0  0  0
   -2.1319   -0.4609   -6.4436 H   0  0  0  0  0  0  0  0  0  0  0  0
   -1.6383   -2.8926   -6.5673 H   0  0  0  0  0  0  0  0  0  0  0  0
   -3.3546   -2.5557   -6.1988 H   0  0  0  0  0  0  0  0  0  0  0  0
   -1.1932   -3.5460   -4.2154 H   0  0  0  0  0  0  0  0  0  0  0  0
   -2.5675   -4.4567   -4.8967 H   0  0  0  0  0  0  0  0  0  0  0  0
   -4.1751   -2.8292   -3.7681 H   0  0  0  0  0  0  0  0  0  0  0  0
   -2.7576   -2.0555   -2.9607 H   0  0  0  0  0  0  0  0  0  0  0  0
   -3.5206   -5.0306   -2.7279 H   0  0  0  0  0  0  0  0  0  0  0  0
   -2.1590   -4.2416   -1.8933 H   0  0  0  0  0  0  0  0  0  0  0  0
   -6.1675   -3.3287   -1.1455 H   0  0  0  0  0  0  0  0  0  0  0  0
   -5.6771   -4.8169   -2.0260 H   0  0  0  0  0  0  0  0  0  0  0  0
   -5.5767   -4.7736   -0.2257 H   0  0  0  0  0  0  0  0  0  0  0  0
    0.1950   -2.1608    0.5161 H   0  0  0  0  0  0  0  0  0  0  0  0
    1.2308   -0.4982    2.0031 H   0  0  0  0  0  0  0  0  0  0  0  0
   -0.0866    1.3053    2.9734 H   0  0  0  0  0  0  0  0  0  0  0  0
   -3.5725   -0.1814    0.8559 H   0  0  0  0  0  0  0  0  0  0  0  0
   -3.2760    2.4419    4.6961 H   0  0  0  0  0  0  0  0  0  0  0  0
   -1.5835    1.9268    4.5040 H   0  0  0  0  0  0  0  0  0  0  0  0
   -2.8906    0.6882    4.5586 H   0  0  0  0  0  0  0  0  0  0  0  0
   -4.6424    0.6929    2.7396 H   0  0  0  0  0  0  0  0  0  0  0  0
   -4.8099    2.4651    2.9493 H   0  0  0  0  0  0  0  0  0  0  0  0
   -4.4404    1.8212    1.3305 H   0  0  0  0  0  0  0  0  0  0  0  0
   -2.4441    3.1810    1.1253 H   0  0  0  0  0  0  0  0  0  0  0  0
   -1.2343    3.2601    2.4565 H   0  0  0  0  0  0  0  0  0  0  0  0
   -2.8796    3.9205    2.7039 H   0  0  0  0  0  0  0  0  0  0  0  0
    5.8140    0.5939   -0.7608 H   0  0  0  0  0  0  0  0  0  0  0  0
    7.5114    0.5046    1.0268 H   0  0  0  0  0  0  0  0  0  0  0  0
    6.8908    0.8542    3.3518 H   0  0  0  0  0  0  0  0  0  0  0  0
    2.7677    1.4088    2.1140 H   0  0  0  0  0  0  0  0  0  0  0  0
    4.7756    3.4448    4.3253 H   0  0  0  0  0  0  0  0  0  0  0  0
    4.7979    2.7289    5.9817 H   0  0  0  0  0  0  0  0  0  0  0  0
    6.1774    2.4569    4.8765 H   0  0  0  0  0  0  0  0  0  0  0  0
    2.7016    1.6034    5.6997 H   0  0  0  0  0  0  0  0  0  0  0  0
    2.5476    2.4075    4.1152 H   0  0  0  0  0  0  0  0  0  0  0  0
    2.3772    0.6035    4.2497 H   0  0  0  0  0  0  0  0  0  0  0  0
    4.4182   -0.7875    4.7481 H   0  0  0  0  0  0  0  0  0  0  0  0
    5.9459    0.0518    5.2027 H   0  0  0  0  0  0  0  0  0  0  0  0
    4.5115    0.2221    6.2391 H   0  0  0  0  0  0  0  0  0  0  0  0
  1  2  1  0
  2  3  1  0
  3  4  1  0
  4  5  1  0
  5  6  1  0
  6  7  1  0
  7  8  1  0
  8  9  1  0
  9 10  1  0
 10 11  1  0
 11 12  1  0
 12 13  1  0
 13 14  1  0
 13 15  1  0
 15 16  2  0
 15 17  1  0
 17 18  1  0
 18 19  2  0
 19 20  1  0
 20 21  2  0
 21 22  1  0
 22 23  2  0
 23 18  1  0
 22 24  1  0
 24 25  1  0
 24 26  1  0
 24 27  1  0
  2 28  1  0
 28 29  2  0
 28 30  1  0
 30 31  1  0
 31 32  2  0
 32 33  1  0
 33 34  2  0
 34 35  1  0
 35 36  2  0
 36 31  1  0
 35 37  1  0
 37 38  1  0
 37 39  1  0
 37 40  1  0
  1 41  1  0
  1 42  1  0
  1 43  1  0
  3 44  1  0
  3 45  1  0
  4 46  1  0
  4 47  1  0
  5 48  1  0
  5 49  1  0
  6 50  1  0
  6 51  1  0
  7 52  1  0
  7 53  1  0
  8 54  1  0
  8 55  1  0
  9 56  1  0
  9 57  1  0
 10 58  1  0
 10 59  1  0
 11 60  1  0
 11 61  1  0
 12 62  1  0
 12 63  1  0
 14 64  1  0
 14 65  1  0
 14 66  1  0
 19 67  1  0
 20 68  1  0
 21 69  1  0
 23 70  1  0
 25 71  1  0
 25 72  1  0
 25 73  1  0
 26 74  1  0
 26 75  1  0
 26 76  1  0
 27 77  1  0
 27 78  1  0
 27 79  1  0
 32 80  1  0
 33 81  1  0
 34 82  1  0
 36 83  1  0
 38 84  1  0
 38 85  1  0
 38 86  1  0
 39 87  1  0
 39 88  1  0
 39 89  1  0
 40 90  1  0
 40 91  1  0
 40 92  1  0
M  CHG  2  24   1  37   1
M  END
> <ID>
HT0606

> <Class>
0.0

> <Clusters>
177

> <Fold>
4

$$$$