
     RDKit          3D

 18 17  0  0  0  0  0  0  0  0999 V2000
   -1.7258   -1.6346    0.2057 N   0  0  0  0  0  0  0  0  0  0  0  0
   -1.3994   -0.2751   -0.2380 C   0  0  0  0  0  0  0  0  0  0  0  0
    0.0889    0.0523   -0.0104 C   0  0  0  0  0  0  0  0  0  0  0  0
    1.1589   -0.9926   -1.0593 S   0  0  0  0  0  0  0  0  0  0  0  0
    2.6819   -0.2843   -0.4240 C   0  0  0  0  0  0  0  0  0  0  0  0
    3.2293    0.7730   -1.0366 C   0  0  0  0  0  0  0  0  0  0  0  0
    4.7218    1.5169   -0.4738 Cl  0  0  0  0  0  0  0  0  0  0  0  0
    3.4254   -1.0232    0.9907 Cl  0  0  0  0  0  0  0  0  0  0  0  0
   -2.2684    0.7225    0.4798 C   0  0  0  0  0  0  0  0  0  0  0  0
   -2.2423    1.9357    0.1386 O   0  0  0  0  0  0  0  0  0  0  0  0
   -3.1116    0.3166    1.5115 O   0  0  0  0  0  0  0  0  0  0  0  0
   -1.3418   -1.7951    1.1659 H   0  0  0  0  0  0  0  0  0  0  0  0
   -1.2720   -2.3240   -0.4359 H   0  0  0  0  0  0  0  0  0  0  0  0
   -1.6244   -0.1926   -1.3247 H   0  0  0  0  0  0  0  0  0  0  0  0
    0.2808    1.1153   -0.2741 H   0  0  0  0  0  0  0  0  0  0  0  0
    0.3526   -0.0960    1.0595 H   0  0  0  0  0  0  0  0  0  0  0  0
    2.7465    1.2007   -1.9096 H   0  0  0  0  0  0  0  0  0  0  0  0
   -3.7004    0.9843    1.9948 H   0  0  0  0  0  0  0  0  0  0  0  0
  1  2  1  0
  2  3  1  0
  3  4  1  0
  4  5  1  0
  5  6  2  3
  6  7  1  0
  5  8  1  0
  2  9  1  0
  9 10  2  0
  9 11  1  0
  1 12  1  0
  1 13  1  0
  2 14  1  0
  3 15  1  0
  3 16  1  0
  6 17  1  0
 11 18  1  0
M  END
> <ID>
HT0645

> <Class>
0.0

> <Clusters>
148

> <Fold>
4

$$$$