
     RDKit          3D

 50 53  0  0  0  0  0  0  0  0999 V2000
   -4.0149    2.2693    2.2827 O   0  0  0  0  0  0  0  0  0  0  0  0
   -4.7069    1.5504    1.5128 C   0  0  0  0  0  0  0  0  0  0  0  0
   -6.0270    1.7603    1.3020 N   0  0  0  0  0  0  0  0  0  0  0  0
   -4.2020    0.5117    0.7951 N   0  0  0  0  0  0  0  0  0  0  0  0
   -5.2655    0.0558    0.0977 C   0  0  0  0  0  0  0  0  0  0  0  0
   -2.8359    0.0569    0.7601 C   0  0  0  0  0  0  0  0  0  0  0  0
   -5.3552   -1.0290   -0.7796 C   0  0  0  0  0  0  0  0  0  0  0  0
   -6.3640    0.8137    0.4105 C   0  0  0  0  0  0  0  0  0  0  0  0
   -2.1491   -0.1217    1.8915 C   0  0  0  0  0  0  0  0  0  0  0  0
   -2.1534   -0.2443   -0.5499 C   0  0  0  0  0  0  0  0  0  0  0  0
   -6.6090   -1.3028   -1.3578 C   0  0  0  0  0  0  0  0  0  0  0  0
   -7.6179    0.5669   -0.1434 C   0  0  0  0  0  0  0  0  0  0  0  0
   -0.7054   -0.4991    1.8057 C   0  0  0  0  0  0  0  0  0  0  0  0
   -0.6600    0.1779   -0.5610 C   0  0  0  0  0  0  0  0  0  0  0  0
   -7.7337   -0.5071   -1.0441 C   0  0  0  0  0  0  0  0  0  0  0  0
   -0.0555    0.3513    0.7910 N   0  0  0  0  0  0  0  0  0  0  0  0
    1.4031    0.1103    0.7752 C   0  0  0  0  0  0  0  0  0  0  0  0
    2.1400    1.2276    0.0154 C   0  0  0  0  0  0  0  0  0  0  0  0
    3.6697    1.0804    0.1003 C   0  0  0  0  0  0  0  0  0  0  0  0
    4.2328   -0.0469   -0.7386 C   0  0  0  0  0  0  0  0  0  0  0  0
    3.4639   -0.7105   -1.4882 O   0  0  0  0  0  0  0  0  0  0  0  0
    5.6835   -0.3816   -0.7108 C   0  0  0  0  0  0  0  0  0  0  0  0
    6.1651   -1.4875   -1.4400 C   0  0  0  0  0  0  0  0  0  0  0  0
    6.6028    0.3876    0.0326 C   0  0  0  0  0  0  0  0  0  0  0  0
    7.5243   -1.8143   -1.4234 C   0  0  0  0  0  0  0  0  0  0  0  0
    7.9611    0.0554    0.0448 C   0  0  0  0  0  0  0  0  0  0  0  0
    8.4218   -1.0442   -0.6817 C   0  0  0  0  0  0  0  0  0  0  0  0
    9.7394   -1.3632   -0.6675 F   0  0  0  0  0  0  0  0  0  0  0  0
   -6.6394    2.4905    1.7295 H   0  0  0  0  0  0  0  0  0  0  0  0
   -4.5053   -1.6556   -1.0043 H   0  0  0  0  0  0  0  0  0  0  0  0
   -2.6008    0.0737    2.8561 H   0  0  0  0  0  0  0  0  0  0  0  0
   -2.2099   -1.3405   -0.7226 H   0  0  0  0  0  0  0  0  0  0  0  0
   -2.6876    0.2605   -1.3838 H   0  0  0  0  0  0  0  0  0  0  0  0
   -6.7138   -2.1340   -2.0430 H   0  0  0  0  0  0  0  0  0  0  0  0
   -8.4748    1.1761    0.1135 H   0  0  0  0  0  0  0  0  0  0  0  0
   -0.2440   -0.3410    2.8051 H   0  0  0  0  0  0  0  0  0  0  0  0
   -0.6136   -1.5750    1.5335 H   0  0  0  0  0  0  0  0  0  0  0  0
   -0.0976   -0.5693   -1.1658 H   0  0  0  0  0  0  0  0  0  0  0  0
   -0.5861    1.1496   -1.0949 H   0  0  0  0  0  0  0  0  0  0  0  0
   -8.6925   -0.7303   -1.4935 H   0  0  0  0  0  0  0  0  0  0  0  0
    1.6312   -0.8856    0.3353 H   0  0  0  0  0  0  0  0  0  0  0  0
    1.7932    0.1057    1.8179 H   0  0  0  0  0  0  0  0  0  0  0  0
    1.8576    2.2030    0.4685 H   0  0  0  0  0  0  0  0  0  0  0  0
    1.8285    1.2539   -1.0507 H   0  0  0  0  0  0  0  0  0  0  0  0
    3.9622    0.9319    1.1623 H   0  0  0  0  0  0  0  0  0  0  0  0
    4.1272    2.0312   -0.2482 H   0  0  0  0  0  0  0  0  0  0  0  0
    5.4918   -2.1037   -2.0225 H   0  0  0  0  0  0  0  0  0  0  0  0
    6.2834    1.2486    0.6035 H   0  0  0  0  0  0  0  0  0  0  0  0
    7.8807   -2.6670   -1.9871 H   0  0  0  0  0  0  0  0  0  0  0  0
    8.6571    0.6537    0.6188 H   0  0  0  0  0  0  0  0  0  0  0  0
  1  2  2  0
  2  3  1  0
  4  2  1  0
  5  4  1  0
  4  6  1  0
  7  5  1  0
  5  8  2  0
  6  9  2  0
 10  6  1  0
 11  7  2  0
  3  8  1  0
  8 12  1  0
  9 13  1  0
 14 10  1  0
 15 11  1  0
 12 15  2  0
 13 16  1  0
 16 14  1  0
 16 17  1  0
 17 18  1  0
 18 19  1  0
 19 20  1  0
 20 21  2  0
 20 22  1  0
 22 23  2  0
 24 22  1  0
 23 25  1  0
 26 24  2  0
 25 27  2  0
 27 26  1  0
 27 28  1  0
  3 29  1  0
  7 30  1  0
  9 31  1  0
 10 32  1  0
 10 33  1  0
 11 34  1  0
 12 35  1  0
 13 36  1  0
 13 37  1  0
 14 38  1  0
 14 39  1  0
 15 40  1  0
 17 41  1  0
 17 42  1  0
 18 43  1  0
 18 44  1  0
 19 45  1  0
 19 46  1  0
 23 47  1  0
 24 48  1  0
 25 49  1  0
 26 50  1  0
M  END
> <ID>
HT0726

> <Class>
0.0

> <Clusters>
124

> <Fold>
4

$$$$