
     RDKit          3D

 54 54  0  0  0  0  0  0  0  0999 V2000
    7.1986   -1.7057   -0.2755 C   0  0  0  0  0  0  0  0  0  0  0  0
    6.2867   -0.6291   -0.6699 N   0  0  0  0  0  0  0  0  0  0  0  0
    4.8911   -1.0951   -0.7331 C   0  0  0  0  0  0  0  0  0  0  0  0
    4.1206   -0.6353    0.5131 C   0  0  0  0  0  0  0  0  0  0  0  0
    4.6371   -1.2673    1.6552 O   0  0  0  0  0  0  0  0  0  0  0  0
    2.6458   -0.9498    0.3729 C   0  0  0  0  0  0  0  0  0  0  0  0
    2.1975   -2.2799    0.3730 C   0  0  0  0  0  0  0  0  0  0  0  0
    0.8394   -2.5670    0.2306 C   0  0  0  0  0  0  0  0  0  0  0  0
   -0.0968   -1.5356    0.1080 C   0  0  0  0  0  0  0  0  0  0  0  0
   -1.4483   -1.8790   -0.0297 O   0  0  0  0  0  0  0  0  0  0  0  0
   -2.5000   -1.2493    0.6499 C   0  0  0  0  0  0  0  0  0  0  0  0
   -2.2597   -0.5198    1.6524 O   0  0  0  0  0  0  0  0  0  0  0  0
   -3.9270   -1.5315    0.2229 C   0  0  0  0  0  0  0  0  0  0  0  0
   -4.2483   -3.0087    0.5118 C   0  0  0  0  0  0  0  0  0  0  0  0
   -4.0637   -1.2608   -1.2872 C   0  0  0  0  0  0  0  0  0  0  0  0
   -4.9277   -0.6370    0.9860 C   0  0  0  0  0  0  0  0  0  0  0  0
    0.3381   -0.1946    0.0910 C   0  0  0  0  0  0  0  0  0  0  0  0
   -0.5972    0.8261   -0.1359 O   0  0  0  0  0  0  0  0  0  0  0  0
   -0.5180    2.1273    0.3825 C   0  0  0  0  0  0  0  0  0  0  0  0
    0.2660    2.3853    1.3380 O   0  0  0  0  0  0  0  0  0  0  0  0
   -1.3659    3.2329   -0.2158 C   0  0  0  0  0  0  0  0  0  0  0  0
   -0.4911    4.0628   -1.1715 C   0  0  0  0  0  0  0  0  0  0  0  0
   -1.9166    4.1412    0.9027 C   0  0  0  0  0  0  0  0  0  0  0  0
   -2.5530    2.6363   -0.9995 C   0  0  0  0  0  0  0  0  0  0  0  0
    1.7108    0.0876    0.2247 C   0  0  0  0  0  0  0  0  0  0  0  0
    8.2312   -1.3033   -0.2035 H   0  0  0  0  0  0  0  0  0  0  0  0
    6.9189   -2.1121    0.7189 H   0  0  0  0  0  0  0  0  0  0  0  0
    7.1916   -2.5241   -1.0288 H   0  0  0  0  0  0  0  0  0  0  0  0
    6.5749   -0.3146   -1.6261 H   0  0  0  0  0  0  0  0  0  0  0  0
    4.3990   -0.6498   -1.6280 H   0  0  0  0  0  0  0  0  0  0  0  0
    4.8228   -2.2013   -0.8489 H   0  0  0  0  0  0  0  0  0  0  0  0
    4.2679    0.4667    0.6072 H   0  0  0  0  0  0  0  0  0  0  0  0
    4.2906   -0.7670    2.4400 H   0  0  0  0  0  0  0  0  0  0  0  0
    2.9010   -3.0961    0.4816 H   0  0  0  0  0  0  0  0  0  0  0  0
    0.5090   -3.5981    0.2300 H   0  0  0  0  0  0  0  0  0  0  0  0
   -4.1420   -3.2257    1.5969 H   0  0  0  0  0  0  0  0  0  0  0  0
   -5.2896   -3.2507    0.2070 H   0  0  0  0  0  0  0  0  0  0  0  0
   -3.5593   -3.6790   -0.0466 H   0  0  0  0  0  0  0  0  0  0  0  0
   -5.1048   -1.4499   -1.6273 H   0  0  0  0  0  0  0  0  0  0  0  0
   -3.8061   -0.2055   -1.5197 H   0  0  0  0  0  0  0  0  0  0  0  0
   -3.3861   -1.9202   -1.8718 H   0  0  0  0  0  0  0  0  0  0  0  0
   -5.9687   -0.8414    0.6542 H   0  0  0  0  0  0  0  0  0  0  0  0
   -4.7111    0.4376    0.8051 H   0  0  0  0  0  0  0  0  0  0  0  0
   -4.8721   -0.8269    2.0795 H   0  0  0  0  0  0  0  0  0  0  0  0
    0.3664    4.5147   -0.6262 H   0  0  0  0  0  0  0  0  0  0  0  0
   -0.0875    3.4222   -1.9862 H   0  0  0  0  0  0  0  0  0  0  0  0
   -1.0828    4.8832   -1.6321 H   0  0  0  0  0  0  0  0  0  0  0  0
   -1.0896    4.6342    1.4588 H   0  0  0  0  0  0  0  0  0  0  0  0
   -2.5195    3.5476    1.6245 H   0  0  0  0  0  0  0  0  0  0  0  0
   -2.5643    4.9380    0.4770 H   0  0  0  0  0  0  0  0  0  0  0  0
   -3.1883    3.4430   -1.4251 H   0  0  0  0  0  0  0  0  0  0  0  0
   -3.1838    2.0125   -0.3308 H   0  0  0  0  0  0  0  0  0  0  0  0
   -2.1963    2.0022   -1.8404 H   0  0  0  0  0  0  0  0  0  0  0  0
    2.0600    1.1097    0.1643 H   0  0  0  0  0  0  0  0  0  0  0  0
  1  2  1  0
  2  3  1  0
  3  4  1  0
  4  5  1  0
  4  6  1  0
  6  7  2  0
  7  8  1  0
  8  9  2  0
  9 10  1  0
 10 11  1  0
 11 12  2  0
 11 13  1  0
 13 14  1  0
 13 15  1  0
 13 16  1  0
  9 17  1  0
 17 18  1  0
 18 19  1  0
 19 20  2  0
 19 21  1  0
 21 22  1  0
 21 23  1  0
 21 24  1  0
 17 25  2  0
 25  6  1  0
  1 26  1  0
  1 27  1  0
  1 28  1  0
  2 29  1  0
  3 30  1  0
  3 31  1  0
  4 32  1  0
  5 33  1  0
  7 34  1  0
  8 35  1  0
 14 36  1  0
 14 37  1  0
 14 38  1  0
 15 39  1  0
 15 40  1  0
 15 41  1  0
 16 42  1  0
 16 43  1  0
 16 44  1  0
 22 45  1  0
 22 46  1  0
 22 47  1  0
 23 48  1  0
 23 49  1  0
 23 50  1  0
 24 51  1  0
 24 52  1  0
 24 53  1  0
 25 54  1  0
M  END
> <ID>
HT0692

> <Class>
0.0

> <Clusters>
8

> <Fold>
4

$$$$