
     RDKit          3D

 69 68  0  0  0  0  0  0  0  0999 V2000
   -9.0768   -2.3165   -0.6131 C   0  0  0  0  0  0  0  0  0  0  0  0
   -9.5848   -0.8748   -0.6367 C   0  0  0  0  0  0  0  0  0  0  0  0
   -8.4896    0.1332   -1.0184 C   0  0  0  0  0  0  0  0  0  0  0  0
   -7.4173    0.2802    0.0749 C   0  0  0  0  0  0  0  0  0  0  0  0
   -6.4540    1.4512   -0.1914 C   0  0  0  0  0  0  0  0  0  0  0  0
   -5.6252    1.3268   -1.4859 C   0  0  0  0  0  0  0  0  0  0  0  0
   -4.7802    0.0419   -1.6038 C   0  0  0  0  0  0  0  0  0  0  0  0
   -3.7943   -0.1995   -0.4462 C   0  0  0  0  0  0  0  0  0  0  0  0
   -2.7049    0.8829   -0.3578 C   0  0  0  0  0  0  0  0  0  0  0  0
   -1.6879    0.6105    0.7627 C   0  0  0  0  0  0  0  0  0  0  0  0
   -0.6944   -0.5080    0.4020 C   0  0  0  0  0  0  0  0  0  0  0  0
    0.3538   -0.7420    1.5025 C   0  0  0  0  0  0  0  0  0  0  0  0
    1.4252    0.3586    1.5442 C   0  0  0  0  0  0  0  0  0  0  0  0
    2.5275    0.0128    2.5565 C   0  0  0  0  0  0  0  0  0  0  0  0
    3.5188    1.1688    2.7825 C   0  0  0  0  0  0  0  0  0  0  0  0
    4.3004    1.6088    1.5310 C   0  0  0  0  0  0  0  0  0  0  0  0
    5.1741    0.4892    0.9456 C   0  0  0  0  0  0  0  0  0  0  0  0
    6.0878    1.0311   -0.1643 C   0  0  0  0  0  0  0  0  0  0  0  0
    6.8773   -0.0775   -0.8791 C   0  0  0  0  0  0  0  0  0  0  0  0
    8.0175   -0.6423   -0.0140 C   0  0  0  0  0  0  0  0  0  0  0  0
    8.7907   -1.7726   -0.7155 C   0  0  0  0  0  0  0  0  0  0  0  0
    9.6226   -1.3079   -1.9181 C   0  0  0  0  0  0  0  0  0  0  0  0
   10.5798   -0.3594   -1.5278 O   0  0  0  0  0  0  0  0  0  0  0  0
   -8.5903   -2.5740   -1.5784 H   0  0  0  0  0  0  0  0  0  0  0  0
   -9.9322   -3.0072   -0.4531 H   0  0  0  0  0  0  0  0  0  0  0  0
   -8.3540   -2.4639    0.2159 H   0  0  0  0  0  0  0  0  0  0  0  0
  -10.4022   -0.8055   -1.3869 H   0  0  0  0  0  0  0  0  0  0  0  0
  -10.0164   -0.6151    0.3544 H   0  0  0  0  0  0  0  0  0  0  0  0
   -8.0217   -0.1814   -1.9763 H   0  0  0  0  0  0  0  0  0  0  0  0
   -8.9738    1.1207   -1.1847 H   0  0  0  0  0  0  0  0  0  0  0  0
   -7.9191    0.4704    1.0491 H   0  0  0  0  0  0  0  0  0  0  0  0
   -6.8427   -0.6626    0.1827 H   0  0  0  0  0  0  0  0  0  0  0  0
   -5.7694    1.5591    0.6764 H   0  0  0  0  0  0  0  0  0  0  0  0
   -7.0418    2.3935   -0.2421 H   0  0  0  0  0  0  0  0  0  0  0  0
   -6.3061    1.3816   -2.3616 H   0  0  0  0  0  0  0  0  0  0  0  0
   -4.9615    2.2133   -1.5676 H   0  0  0  0  0  0  0  0  0  0  0  0
   -5.4562   -0.8355   -1.6883 H   0  0  0  0  0  0  0  0  0  0  0  0
   -4.2090    0.0851   -2.5569 H   0  0  0  0  0  0  0  0  0  0  0  0
   -4.3394   -0.2719    0.5178 H   0  0  0  0  0  0  0  0  0  0  0  0
   -3.3193   -1.1862   -0.6237 H   0  0  0  0  0  0  0  0  0  0  0  0
   -2.1779    0.9760   -1.3325 H   0  0  0  0  0  0  0  0  0  0  0  0
   -3.1850    1.8598   -0.1388 H   0  0  0  0  0  0  0  0  0  0  0  0
   -2.2226    0.3563    1.7041 H   0  0  0  0  0  0  0  0  0  0  0  0
   -1.1281    1.5526    0.9390 H   0  0  0  0  0  0  0  0  0  0  0  0
   -0.1859   -0.2734   -0.5587 H   0  0  0  0  0  0  0  0  0  0  0  0
   -1.2501   -1.4587    0.2634 H   0  0  0  0  0  0  0  0  0  0  0  0
   -0.1486   -0.8220    2.4917 H   0  0  0  0  0  0  0  0  0  0  0  0
    0.8525   -1.7153    1.2993 H   0  0  0  0  0  0  0  0  0  0  0  0
    0.9609    1.3253    1.8323 H   0  0  0  0  0  0  0  0  0  0  0  0
    1.8728    0.4626    0.5328 H   0  0  0  0  0  0  0  0  0  0  0  0
    2.0550   -0.2201    3.5361 H   0  0  0  0  0  0  0  0  0  0  0  0
    3.0699   -0.9008    2.2327 H   0  0  0  0  0  0  0  0  0  0  0  0
    2.9625    2.0463    3.1782 H   0  0  0  0  0  0  0  0  0  0  0  0
    4.2431    0.8643    3.5693 H   0  0  0  0  0  0  0  0  0  0  0  0
    3.6027    1.9926    0.7564 H   0  0  0  0  0  0  0  0  0  0  0  0
    4.9555    2.4576    1.8268 H   0  0  0  0  0  0  0  0  0  0  0  0
    4.5224   -0.3035    0.5200 H   0  0  0  0  0  0  0  0  0  0  0  0
    5.7896    0.0502    1.7587 H   0  0  0  0  0  0  0  0  0  0  0  0
    6.7915    1.7830    0.2554 H   0  0  0  0  0  0  0  0  0  0  0  0
    5.4584    1.5469   -0.9227 H   0  0  0  0  0  0  0  0  0  0  0  0
    6.1883   -0.8949   -1.1845 H   0  0  0  0  0  0  0  0  0  0  0  0
    7.3065    0.3643   -1.8026 H   0  0  0  0  0  0  0  0  0  0  0  0
    7.5929   -1.0662    0.9197 H   0  0  0  0  0  0  0  0  0  0  0  0
    8.7140    0.1726    0.2791 H   0  0  0  0  0  0  0  0  0  0  0  0
    9.4767   -2.2414    0.0235 H   0  0  0  0  0  0  0  0  0  0  0  0
    8.0779   -2.5587   -1.0478 H   0  0  0  0  0  0  0  0  0  0  0  0
    8.9701   -0.9170   -2.7311 H   0  0  0  0  0  0  0  0  0  0  0  0
   10.1566   -2.1885   -2.3338 H   0  0  0  0  0  0  0  0  0  0  0  0
   10.1674    0.5344   -1.6544 H   0  0  0  0  0  0  0  0  0  0  0  0
  1  2  1  0
  2  3  1  0
  3  4  1  0
  4  5  1  0
  5  6  1  0
  6  7  1  0
  7  8  1  0
  8  9  1  0
  9 10  1  0
 10 11  1  0
 11 12  1  0
 12 13  1  0
 13 14  1  0
 14 15  1  0
 15 16  1  0
 16 17  1  0
 17 18  1  0
 18 19  1  0
 19 20  1  0
 20 21  1  0
 21 22  1  0
 22 23  1  0
  1 24  1  0
  1 25  1  0
  1 26  1  0
  2 27  1  0
  2 28  1  0
  3 29  1  0
  3 30  1  0
  4 31  1  0
  4 32  1  0
  5 33  1  0
  5 34  1  0
  6 35  1  0
  6 36  1  0
  7 37  1  0
  7 38  1  0
  8 39  1  0
  8 40  1  0
  9 41  1  0
  9 42  1  0
 10 43  1  0
 10 44  1  0
 11 45  1  0
 11 46  1  0
 12 47  1  0
 12 48  1  0
 13 49  1  0
 13 50  1  0
 14 51  1  0
 14 52  1  0
 15 53  1  0
 15 54  1  0
 16 55  1  0
 16 56  1  0
 17 57  1  0
 17 58  1  0
 18 59  1  0
 18 60  1  0
 19 61  1  0
 19 62  1  0
 20 63  1  0
 20 64  1  0
 21 65  1  0
 21 66  1  0
 22 67  1  0
 22 68  1  0
 23 69  1  0
M  END
> <ID>
HT0703

> <Class>
0.0

> <Clusters>
270

> <Fold>
4

$$$$