
     RDKit          3D

 26 26  0  0  0  0  0  0  0  0999 V2000
    3.1782    0.3191    1.7369 N   0  0  0  0  0  0  0  0  0  0  0  0
    1.7966   -0.0389    1.4044 C   0  0  0  0  0  0  0  0  0  0  0  0
    1.2328    0.8646    0.2776 C   0  0  0  0  0  0  0  0  0  0  0  0
    1.2782    2.2077    0.6868 O   0  0  0  0  0  0  0  0  0  0  0  0
   -0.1961    0.4906   -0.0693 C   0  0  0  0  0  0  0  0  0  0  0  0
   -1.2305    0.6839    0.8591 C   0  0  0  0  0  0  0  0  0  0  0  0
   -2.5425    0.3335    0.5367 C   0  0  0  0  0  0  0  0  0  0  0  0
   -2.8491   -0.2129   -0.7143 C   0  0  0  0  0  0  0  0  0  0  0  0
   -4.1808   -0.5428   -0.9737 O   0  0  0  0  0  0  0  0  0  0  0  0
   -1.8141   -0.4088   -1.6594 C   0  0  0  0  0  0  0  0  0  0  0  0
   -2.0427   -0.9483   -2.9269 O   0  0  0  0  0  0  0  0  0  0  0  0
   -0.5006   -0.0536   -1.3273 C   0  0  0  0  0  0  0  0  0  0  0  0
    1.7397   -1.4984    1.0274 C   0  0  0  0  0  0  0  0  0  0  0  0
    1.0411   -2.2923    1.7112 O   0  0  0  0  0  0  0  0  0  0  0  0
    2.4455   -1.9888   -0.0691 O   0  0  0  0  0  0  0  0  0  0  0  0
    3.7488    0.3841    0.8625 H   0  0  0  0  0  0  0  0  0  0  0  0
    3.1846    1.2651    2.1830 H   0  0  0  0  0  0  0  0  0  0  0  0
    1.1775    0.1081    2.3184 H   0  0  0  0  0  0  0  0  0  0  0  0
    1.8833    0.7434   -0.6203 H   0  0  0  0  0  0  0  0  0  0  0  0
    1.1508    2.7608   -0.1282 H   0  0  0  0  0  0  0  0  0  0  0  0
   -1.0218    1.1091    1.8328 H   0  0  0  0  0  0  0  0  0  0  0  0
   -3.3288    0.4885    1.2649 H   0  0  0  0  0  0  0  0  0  0  0  0
   -4.5048   -0.9414   -1.8431 H   0  0  0  0  0  0  0  0  0  0  0  0
   -2.9504   -1.2362   -3.2628 H   0  0  0  0  0  0  0  0  0  0  0  0
    0.2860   -0.2104   -2.0554 H   0  0  0  0  0  0  0  0  0  0  0  0
    3.0190   -1.3857   -0.6454 H   0  0  0  0  0  0  0  0  0  0  0  0
  1  2  1  0
  2  3  1  0
  3  4  1  0
  3  5  1  0
  5  6  2  0
  6  7  1  0
  7  8  2  0
  8  9  1  0
  8 10  1  0
 10 11  1  0
 10 12  2  0
 12  5  1  0
  2 13  1  0
 13 14  2  0
 13 15  1  0
  1 16  1  0
  1 17  1  0
  2 18  1  0
  3 19  1  0
  4 20  1  0
  6 21  1  0
  7 22  1  0
  9 23  1  0
 11 24  1  0
 12 25  1  0
 15 26  1  0
M  END
> <ID>
HT0731

> <Class>
0.0

> <Clusters>
146

> <Fold>
4

$$$$