
     RDKit          3D

 48 49  0  0  0  0  0  0  0  0999 V2000
    7.3940    1.2170   -2.2096 C   0  0  0  0  0  0  0  0  0  0  0  0
    6.2606    0.3603   -1.6532 C   0  0  0  0  0  0  0  0  0  0  0  0
    5.2348    1.2186   -0.9045 C   0  0  0  0  0  0  0  0  0  0  0  0
    4.0996    0.3612   -0.3492 C   0  0  0  0  0  0  0  0  0  0  0  0
    3.1702    1.1953    0.3376 O   0  0  0  0  0  0  0  0  0  0  0  0
    2.0049    0.7334    0.9671 C   0  0  0  0  0  0  0  0  0  0  0  0
    1.1799    1.6653    1.6047 C   0  0  0  0  0  0  0  0  0  0  0  0
    0.0066    1.2562    2.2439 C   0  0  0  0  0  0  0  0  0  0  0  0
   -0.3689   -0.0975    2.2479 C   0  0  0  0  0  0  0  0  0  0  0  0
    0.4673   -1.0368    1.6187 C   0  0  0  0  0  0  0  0  0  0  0  0
    1.6417   -0.6260    0.9809 C   0  0  0  0  0  0  0  0  0  0  0  0
   -1.6242   -0.5084    2.9209 C   0  0  0  0  0  0  0  0  0  0  0  0
   -2.0097    0.1288    3.9391 O   0  0  0  0  0  0  0  0  0  0  0  0
   -2.4613   -1.6635    2.4266 C   0  0  0  0  0  0  0  0  0  0  0  0
   -3.9323   -1.2583    2.1579 C   0  0  0  0  0  0  0  0  0  0  0  0
   -4.1924   -0.7113    0.8060 N   0  0  0  0  0  0  0  0  0  0  0  0
   -3.3171    0.4129    0.4289 C   0  0  0  0  0  0  0  0  0  0  0  0
   -3.9134    1.1735   -0.7690 C   0  0  0  0  0  0  0  0  0  0  0  0
   -4.7722    0.2718   -1.6740 C   0  0  0  0  0  0  0  0  0  0  0  0
   -4.2594   -1.1703   -1.6670 C   0  0  0  0  0  0  0  0  0  0  0  0
   -4.2649   -1.7590   -0.2400 C   0  0  0  0  0  0  0  0  0  0  0  0
    6.9948    1.9689   -2.9232 H   0  0  0  0  0  0  0  0  0  0  0  0
    7.9241    1.7389   -1.3846 H   0  0  0  0  0  0  0  0  0  0  0  0
    8.1204    0.5700   -2.7451 H   0  0  0  0  0  0  0  0  0  0  0  0
    5.7635   -0.1693   -2.4952 H   0  0  0  0  0  0  0  0  0  0  0  0
    6.6892   -0.3991   -0.9633 H   0  0  0  0  0  0  0  0  0  0  0  0
    5.7343    1.7473   -0.0631 H   0  0  0  0  0  0  0  0  0  0  0  0
    4.8093    1.9789   -1.5959 H   0  0  0  0  0  0  0  0  0  0  0  0
    4.5143   -0.3916    0.3566 H   0  0  0  0  0  0  0  0  0  0  0  0
    3.5835   -0.1584   -1.1861 H   0  0  0  0  0  0  0  0  0  0  0  0
    1.4491    2.7140    1.6031 H   0  0  0  0  0  0  0  0  0  0  0  0
   -0.6177    2.0015    2.7214 H   0  0  0  0  0  0  0  0  0  0  0  0
    0.2322   -2.0926    1.6373 H   0  0  0  0  0  0  0  0  0  0  0  0
    2.2624   -1.3742    0.5072 H   0  0  0  0  0  0  0  0  0  0  0  0
   -2.0220   -2.1208    1.5205 H   0  0  0  0  0  0  0  0  0  0  0  0
   -2.4488   -2.4445    3.2169 H   0  0  0  0  0  0  0  0  0  0  0  0
   -4.2761   -0.5221    2.9163 H   0  0  0  0  0  0  0  0  0  0  0  0
   -4.5736   -2.1540    2.3144 H   0  0  0  0  0  0  0  0  0  0  0  0
   -2.3076    0.0348    0.1522 H   0  0  0  0  0  0  0  0  0  0  0  0
   -3.2069    1.1237    1.2772 H   0  0  0  0  0  0  0  0  0  0  0  0
   -3.0835    1.6145   -1.3634 H   0  0  0  0  0  0  0  0  0  0  0  0
   -4.5435    2.0127   -0.4015 H   0  0  0  0  0  0  0  0  0  0  0  0
   -5.8251    0.2812   -1.3148 H   0  0  0  0  0  0  0  0  0  0  0  0
   -4.7645    0.6680   -2.7124 H   0  0  0  0  0  0  0  0  0  0  0  0
   -3.2227   -1.1852   -2.0704 H   0  0  0  0  0  0  0  0  0  0  0  0
   -4.8901   -1.7957   -2.3352 H   0  0  0  0  0  0  0  0  0  0  0  0
   -3.4284   -2.4836   -0.1543 H   0  0  0  0  0  0  0  0  0  0  0  0
   -5.2103   -2.3268   -0.0996 H   0  0  0  0  0  0  0  0  0  0  0  0
  1  2  1  0
  2  3  1  0
  3  4  1  0
  4  5  1  0
  5  6  1  0
  6  7  2  0
  7  8  1  0
  8  9  2  0
  9 10  1  0
 10 11  2  0
 11  6  1  0
  9 12  1  0
 12 13  2  0
 12 14  1  0
 14 15  1  0
 15 16  1  0
 16 17  1  0
 17 18  1  0
 18 19  1  0
 19 20  1  0
 20 21  1  0
 21 16  1  0
  1 22  1  0
  1 23  1  0
  1 24  1  0
  2 25  1  0
  2 26  1  0
  3 27  1  0
  3 28  1  0
  4 29  1  0
  4 30  1  0
  7 31  1  0
  8 32  1  0
 10 33  1  0
 11 34  1  0
 14 35  1  0
 14 36  1  0
 15 37  1  0
 15 38  1  0
 17 39  1  0
 17 40  1  0
 18 41  1  0
 18 42  1  0
 19 43  1  0
 19 44  1  0
 20 45  1  0
 20 46  1  0
 21 47  1  0
 21 48  1  0
M  END
> <ID>
HT0734

> <Class>
0.0

> <Clusters>
91

> <Fold>
4

$$$$