
     RDKit          3D

 45 49  0  0  0  0  0  0  0  0999 V2000
    5.3864   -0.3332   -1.0396 C   0  0  0  0  0  0  0  0  0  0  0  0
    4.2259    0.0957   -0.3358 O   0  0  0  0  0  0  0  0  0  0  0  0
    2.9472   -0.4461   -0.5254 C   0  0  0  0  0  0  0  0  0  0  0  0
    2.6730   -1.4760   -1.4585 C   0  0  0  0  0  0  0  0  0  0  0  0
    1.3445   -1.8968   -1.6825 C   0  0  0  0  0  0  0  0  0  0  0  0
    0.2926   -1.3523   -0.9223 C   0  0  0  0  0  0  0  0  0  0  0  0
   -1.1514   -1.5003   -1.3504 C   0  0  0  0  0  0  0  0  0  0  0  0
   -2.1531   -0.7143   -0.4477 C   0  0  2  0  0  0  0  0  0  0  0  0
   -1.5572    0.6455    0.0614 C   0  0  2  0  0  0  0  0  0  0  0  0
   -1.2212    1.6417   -1.0842 C   0  0  0  0  0  0  0  0  0  0  0  0
   -0.1717    2.7134   -0.7100 C   0  0  0  0  0  0  0  0  0  0  0  0
    0.0602    2.8401    0.8078 C   0  0  2  0  0  0  0  0  0  0  0  0
    0.9658    3.8765    1.0962 O   0  0  0  0  0  0  0  0  0  0  0  0
    0.5357    1.5057    1.4230 C   0  0  2  0  0  0  0  0  0  0  0  0
    1.8703    1.1909    1.0005 O   0  0  0  0  0  0  0  0  0  0  0  0
    1.8746    0.0620    0.2074 C   0  0  0  0  0  0  0  0  0  0  0  0
    0.6225   -0.4585    0.0961 C   0  0  0  0  0  0  0  0  0  0  0  0
   -0.3438    0.2897    0.9502 C   0  0  2  0  0  0  0  0  0  0  0  0
   -0.7890   -0.6103    2.1510 C   0  0  0  0  0  0  0  0  0  0  0  0
   -2.2365   -1.1215    2.0307 C   0  0  0  0  0  0  0  0  0  0  0  0
   -2.5338   -1.6240    0.6734 N   0  0  0  0  0  0  0  0  0  0  0  0
   -3.9409   -2.0434    0.5804 C   0  0  0  0  0  0  0  0  0  0  0  0
    5.5814   -1.4072   -0.8351 H   0  0  0  0  0  0  0  0  0  0  0  0
    5.2531   -0.1707   -2.1300 H   0  0  0  0  0  0  0  0  0  0  0  0
    6.2589    0.2589   -0.6955 H   0  0  0  0  0  0  0  0  0  0  0  0
    3.4619   -1.9030   -2.0623 H   0  0  0  0  0  0  0  0  0  0  0  0
    1.1331   -2.5981   -2.4798 H   0  0  0  0  0  0  0  0  0  0  0  0
   -1.2445   -1.1344   -2.3955 H   0  0  0  0  0  0  0  0  0  0  0  0
   -1.4177   -2.5796   -1.3703 H   0  0  0  0  0  0  0  0  0  0  0  0
   -3.0400   -0.4625   -1.0755 H   0  0  0  0  0  0  0  0  0  0  0  0
   -2.3199    1.1577    0.6893 H   0  0  0  0  0  0  0  0  0  0  0  0
   -0.8527    1.1082   -1.9840 H   0  0  0  0  0  0  0  0  0  0  0  0
   -2.1630    2.1479   -1.3903 H   0  0  0  0  0  0  0  0  0  0  0  0
    0.7926    2.4631   -1.2052 H   0  0  0  0  0  0  0  0  0  0  0  0
   -0.4959    3.6979   -1.1123 H   0  0  0  0  0  0  0  0  0  0  0  0
   -0.9092    3.1110    1.2808 H   0  0  0  0  0  0  0  0  0  0  0  0
    1.8066    3.6942    0.6010 H   0  0  0  0  0  0  0  0  0  0  0  0
    0.5406    1.6191    2.5279 H   0  0  0  0  0  0  0  0  0  0  0  0
   -0.7313   -0.0564    3.1117 H   0  0  0  0  0  0  0  0  0  0  0  0
   -0.1105   -1.4859    2.2639 H   0  0  0  0  0  0  0  0  0  0  0  0
   -2.3742   -1.9429    2.7680 H   0  0  0  0  0  0  0  0  0  0  0  0
   -2.9443   -0.3092    2.3120 H   0  0  0  0  0  0  0  0  0  0  0  0
   -4.6223   -1.1714    0.6948 H   0  0  0  0  0  0  0  0  0  0  0  0
   -4.1733   -2.7936    1.3667 H   0  0  0  0  0  0  0  0  0  0  0  0
   -4.1293   -2.5274   -0.4021 H   0  0  0  0  0  0  0  0  0  0  0  0
  1  2  1  0
  2  3  1  0
  3  4  2  0
  4  5  1  0
  5  6  2  0
  6  7  1  0
  8  7  1  0
  8  9  1  0
  9 10  1  0
 10 11  1  0
 11 12  1  0
 12 13  1  0
 12 14  1  0
 14 15  1  0
 15 16  1  0
 16  3  1  0
 16 17  2  0
 17  6  1  0
 17 18  1  0
 18  9  1  0
 18 14  1  0
 18 19  1  1
 19 20  1  0
 20 21  1  0
 21  8  1  0
 21 22  1  0
  1 23  1  0
  1 24  1  0
  1 25  1  0
  4 26  1  0
  5 27  1  0
  7 28  1  0
  7 29  1  0
  8 30  1  6
  9 31  1  1
 10 32  1  0
 10 33  1  0
 11 34  1  0
 11 35  1  0
 12 36  1  1
 13 37  1  0
 14 38  1  1
 19 39  1  0
 19 40  1  0
 20 41  1  0
 20 42  1  0
 22 43  1  0
 22 44  1  0
 22 45  1  0
M  END
> <ID>
HT0668

> <Class>
0.0

> <Clusters>
63

> <Fold>
4

$$$$