
     RDKit          3D

 27 27  0  0  0  0  0  0  0  0999 V2000
   -2.3523    0.4191    1.5708 C   0  0  0  0  0  0  0  0  0  0  0  0
   -1.6106    0.7812    0.3607 N   0  0  0  0  0  0  0  0  0  0  0  0
   -1.3551   -0.3890   -0.5043 C   0  0  1  0  0  0  0  0  0  0  0  0
   -2.5308   -0.6420   -1.4664 C   0  0  0  0  0  0  0  0  0  0  0  0
   -0.0311   -0.2122   -1.2953 C   0  0  1  0  0  0  0  0  0  0  0  0
   -0.0609    0.9020   -2.1556 O   0  0  0  0  0  0  0  0  0  0  0  0
    1.1876   -0.1749   -0.3853 C   0  0  0  0  0  0  0  0  0  0  0  0
    2.0757   -1.2674   -0.3610 C   0  0  0  0  0  0  0  0  0  0  0  0
    3.1976   -1.2528    0.4731 C   0  0  0  0  0  0  0  0  0  0  0  0
    3.4483   -0.1497    1.2912 C   0  0  0  0  0  0  0  0  0  0  0  0
    2.5780    0.9419    1.2761 C   0  0  0  0  0  0  0  0  0  0  0  0
    1.4545    0.9333    0.4439 C   0  0  0  0  0  0  0  0  0  0  0  0
   -2.5252    1.3303    2.1813 H   0  0  0  0  0  0  0  0  0  0  0  0
   -3.3380   -0.0262    1.3181 H   0  0  0  0  0  0  0  0  0  0  0  0
   -1.7624   -0.2947    2.1848 H   0  0  0  0  0  0  0  0  0  0  0  0
   -2.1584    1.5080   -0.1574 H   0  0  0  0  0  0  0  0  0  0  0  0
   -1.2334   -1.3080    0.1157 H   0  0  0  0  0  0  0  0  0  0  0  0
   -3.4666   -0.8203   -0.8978 H   0  0  0  0  0  0  0  0  0  0  0  0
   -2.6837    0.2275   -2.1405 H   0  0  0  0  0  0  0  0  0  0  0  0
   -2.3327   -1.5426   -2.0858 H   0  0  0  0  0  0  0  0  0  0  0  0
    0.0628   -1.1059   -1.9515 H   0  0  0  0  0  0  0  0  0  0  0  0
   -0.2290    1.7141   -1.6136 H   0  0  0  0  0  0  0  0  0  0  0  0
    1.8993   -2.1357   -0.9835 H   0  0  0  0  0  0  0  0  0  0  0  0
    3.8727   -2.0987    0.4856 H   0  0  0  0  0  0  0  0  0  0  0  0
    4.3173   -0.1404    1.9364 H   0  0  0  0  0  0  0  0  0  0  0  0
    2.7744    1.7973    1.9097 H   0  0  0  0  0  0  0  0  0  0  0  0
    0.8018    1.7953    0.4509 H   0  0  0  0  0  0  0  0  0  0  0  0
  1  2  1  0
  2  3  1  0
  3  4  1  0
  3  5  1  0
  5  6  1  0
  5  7  1  0
  7  8  2  0
  8  9  1  0
  9 10  2  0
 10 11  1  0
 11 12  2  0
 12  7  1  0
  1 13  1  0
  1 14  1  0
  1 15  1  0
  2 16  1  0
  3 17  1  1
  4 18  1  0
  4 19  1  0
  4 20  1  0
  5 21  1  6
  6 22  1  0
  8 23  1  0
  9 24  1  0
 10 25  1  0
 11 26  1  0
 12 27  1  0
M  END
> <ID>
HT0767

> <Class>
0.0

> <Clusters>
164

> <Fold>
4

$$$$