
     RDKit          3D

 14 13  0  0  0  0  0  0  0  0999 V2000
   -0.1432   -0.2210    1.8103 O   0  0  0  0  0  0  0  0  0  0  0  0
    0.1228   -0.7847    0.5485 C   0  0  0  0  0  0  0  0  0  0  0  0
    1.4240   -0.2373   -0.0759 C   0  0  0  0  0  0  0  0  0  0  0  0
    1.4108    1.2186   -0.2767 C   0  0  0  0  0  0  0  0  0  0  0  0
    1.4038    2.3650   -0.4350 N   0  0  0  0  0  0  0  0  0  0  0  0
   -1.0756   -0.6957   -0.3753 C   0  0  0  0  0  0  0  0  0  0  0  0
   -1.6803    0.4545   -0.6940 C   0  0  0  0  0  0  0  0  0  0  0  0
   -0.2882    0.7527    1.6932 H   0  0  0  0  0  0  0  0  0  0  0  0
    0.3014   -1.8689    0.7169 H   0  0  0  0  0  0  0  0  0  0  0  0
    1.6028   -0.7301   -1.0554 H   0  0  0  0  0  0  0  0  0  0  0  0
    2.2775   -0.4874    0.5895 H   0  0  0  0  0  0  0  0  0  0  0  0
   -1.4741   -1.6180   -0.7885 H   0  0  0  0  0  0  0  0  0  0  0  0
   -1.3429    1.4061   -0.2999 H   0  0  0  0  0  0  0  0  0  0  0  0
   -2.5388    0.4461   -1.3577 H   0  0  0  0  0  0  0  0  0  0  0  0
  1  2  1  0
  2  3  1  0
  3  4  1  0
  4  5  3  0
  2  6  1  0
  6  7  2  3
  1  8  1  0
  2  9  1  0
  3 10  1  0
  3 11  1  0
  6 12  1  0
  7 13  1  0
  7 14  1  0
M  END
> <ID>
HT0026

> <Class>
0.0

> <Clusters>
11

> <Fold>
4

$$$$