
     RDKit          3D

 41 41  0  0  0  0  0  0  0  0999 V2000
   -5.5809   -0.3197    0.1499 C   0  0  0  0  0  0  0  0  0  0  0  0
   -4.0807   -0.1861   -0.1432 C   0  0  0  0  0  0  0  0  0  0  0  0
   -3.7525   -0.9253   -1.4507 C   0  0  0  0  0  0  0  0  0  0  0  0
   -3.3140   -0.7317    0.9956 N   0  0  0  0  0  0  0  0  0  0  0  0
   -1.8506   -0.5671    0.9052 C   0  0  0  0  0  0  0  0  0  0  0  0
   -1.3857    0.9103    1.0066 C   0  0  0  0  0  0  0  0  0  0  0  0
   -1.5293    1.5831   -0.2197 O   0  0  0  0  0  0  0  0  0  0  0  0
    0.0677    1.0145    1.4974 C   0  0  0  0  0  0  0  0  0  0  0  0
    0.9448    0.2748    0.6448 O   0  0  0  0  0  0  0  0  0  0  0  0
    1.9191    0.8191   -0.2096 C   0  0  0  0  0  0  0  0  0  0  0  0
    1.8643    2.1565   -0.6523 C   0  0  0  0  0  0  0  0  0  0  0  0
    2.8572    2.6642   -1.4932 C   0  0  0  0  0  0  0  0  0  0  0  0
    3.9113    1.8493   -1.9050 C   0  0  0  0  0  0  0  0  0  0  0  0
    3.9696    0.5184   -1.4892 C   0  0  0  0  0  0  0  0  0  0  0  0
    2.9688   -0.0121   -0.6576 C   0  0  0  0  0  0  0  0  0  0  0  0
    3.0670   -1.4453   -0.2019 C   0  0  0  0  0  0  0  0  0  0  0  0
    3.7381   -1.5115    1.1420 C   0  0  0  0  0  0  0  0  0  0  0  0
    4.9101   -2.1283    1.3182 C   0  0  0  0  0  0  0  0  0  0  0  0
   -6.1796    0.0993   -0.6872 H   0  0  0  0  0  0  0  0  0  0  0  0
   -5.8554   -1.3871    0.2930 H   0  0  0  0  0  0  0  0  0  0  0  0
   -5.8430    0.2431    1.0711 H   0  0  0  0  0  0  0  0  0  0  0  0
   -3.8739    0.8967   -0.2719 H   0  0  0  0  0  0  0  0  0  0  0  0
   -4.4668   -0.6368   -2.2513 H   0  0  0  0  0  0  0  0  0  0  0  0
   -3.8082   -2.0246   -1.2998 H   0  0  0  0  0  0  0  0  0  0  0  0
   -2.7396   -0.6554   -1.8125 H   0  0  0  0  0  0  0  0  0  0  0  0
   -3.6368   -0.2734    1.8806 H   0  0  0  0  0  0  0  0  0  0  0  0
   -1.4095   -1.1357    1.7529 H   0  0  0  0  0  0  0  0  0  0  0  0
   -1.4485   -1.0527   -0.0077 H   0  0  0  0  0  0  0  0  0  0  0  0
   -2.0176    1.4325    1.7571 H   0  0  0  0  0  0  0  0  0  0  0  0
   -1.0050    1.0883   -0.9019 H   0  0  0  0  0  0  0  0  0  0  0  0
    0.1405    0.5910    2.5218 H   0  0  0  0  0  0  0  0  0  0  0  0
    0.3656    2.0794    1.5844 H   0  0  0  0  0  0  0  0  0  0  0  0
    1.0483    2.8081   -0.3763 H   0  0  0  0  0  0  0  0  0  0  0  0
    2.8074    3.6921   -1.8287 H   0  0  0  0  0  0  0  0  0  0  0  0
    4.6823    2.2482   -2.5515 H   0  0  0  0  0  0  0  0  0  0  0  0
    4.7956   -0.1008   -1.8170 H   0  0  0  0  0  0  0  0  0  0  0  0
    2.0546   -1.8956   -0.1217 H   0  0  0  0  0  0  0  0  0  0  0  0
    3.6195   -2.0478   -0.9570 H   0  0  0  0  0  0  0  0  0  0  0  0
    3.2557   -1.0402    1.9936 H   0  0  0  0  0  0  0  0  0  0  0  0
    5.4245   -2.6067    0.4904 H   0  0  0  0  0  0  0  0  0  0  0  0
    5.3656   -2.1544    2.3027 H   0  0  0  0  0  0  0  0  0  0  0  0
  1  2  1  0
  2  3  1  0
  2  4  1  0
  4  5  1  0
  5  6  1  0
  6  7  1  0
  6  8  1  0
  8  9  1  0
  9 10  1  0
 10 11  2  0
 11 12  1  0
 12 13  2  0
 13 14  1  0
 14 15  2  0
 15 10  1  0
 15 16  1  0
 16 17  1  0
 17 18  2  3
  1 19  1  0
  1 20  1  0
  1 21  1  0
  2 22  1  0
  3 23  1  0
  3 24  1  0
  3 25  1  0
  4 26  1  0
  5 27  1  0
  5 28  1  0
  6 29  1  0
  7 30  1  0
  8 31  1  0
  8 32  1  0
 11 33  1  0
 12 34  1  0
 13 35  1  0
 14 36  1  0
 16 37  1  0
 16 38  1  0
 17 39  1  0
 18 40  1  0
 18 41  1  0
M  END
> <ID>
HT0114

> <Class>
0.0

> <Clusters>
11

> <Fold>
4

$$$$