
     RDKit          3D

 30 32  0  0  0  0  0  0  0  0999 V2000
    4.0223   -0.0403   -0.0571 N   0  0  0  0  0  0  0  0  0  0  0  0
    3.1879   -0.6683    0.9174 C   0  0  0  0  0  0  0  0  0  0  0  0
    3.6954   -1.4676    1.7487 O   0  0  0  0  0  0  0  0  0  0  0  0
    1.7083   -0.4148    0.9357 C   0  0  2  0  0  0  0  0  0  0  0  0
    1.0148   -1.1721   -0.2063 C   0  0  0  0  0  0  0  0  0  0  0  0
   -0.4964   -0.8463   -0.2660 C   0  0  1  0  0  0  0  0  0  0  0  0
   -1.0422   -1.3369   -1.5348 N   0  0  0  0  0  0  0  0  0  0  0  0
   -2.0207   -2.3255   -1.2463 C   0  0  0  0  0  0  0  0  0  0  0  0
   -2.6710   -2.9371   -2.1334 O   0  0  0  0  0  0  0  0  0  0  0  0
   -2.1950   -2.5468    0.1382 N   0  0  0  0  0  0  0  0  0  0  0  0
   -1.2798   -1.6481    0.7478 C   0  0  0  0  0  0  0  0  0  0  0  0
   -1.1698   -1.5331    1.9973 O   0  0  0  0  0  0  0  0  0  0  0  0
   -0.7749    0.6406   -0.1017 C   0  0  0  0  0  0  0  0  0  0  0  0
   -2.0299    1.1823   -0.4407 C   0  0  0  0  0  0  0  0  0  0  0  0
   -2.2749    2.5502   -0.2890 C   0  0  0  0  0  0  0  0  0  0  0  0
   -3.4837    3.0630   -0.6265 F   0  0  0  0  0  0  0  0  0  0  0  0
   -1.2758    3.3896    0.2089 C   0  0  0  0  0  0  0  0  0  0  0  0
   -0.0336    2.8620    0.5682 C   0  0  0  0  0  0  0  0  0  0  0  0
    0.2167    1.4925    0.4313 C   0  0  0  0  0  0  0  0  0  0  0  0
    1.4611    0.9847    0.8177 O   0  0  0  0  0  0  0  0  0  0  0  0
    5.0490   -0.2292   -0.0711 H   0  0  0  0  0  0  0  0  0  0  0  0
    3.6185    0.6089   -0.7683 H   0  0  0  0  0  0  0  0  0  0  0  0
    1.2979   -0.7625    1.9083 H   0  0  0  0  0  0  0  0  0  0  0  0
    1.4827   -0.8715   -1.1706 H   0  0  0  0  0  0  0  0  0  0  0  0
    1.1688   -2.2678   -0.0857 H   0  0  0  0  0  0  0  0  0  0  0  0
   -0.7657   -1.0155   -2.4896 H   0  0  0  0  0  0  0  0  0  0  0  0
   -2.8605   -3.2015    0.6056 H   0  0  0  0  0  0  0  0  0  0  0  0
   -2.8173    0.5463   -0.8250 H   0  0  0  0  0  0  0  0  0  0  0  0
   -1.4655    4.4491    0.3232 H   0  0  0  0  0  0  0  0  0  0  0  0
    0.7332    3.5157    0.9638 H   0  0  0  0  0  0  0  0  0  0  0  0
  1  2  1  0
  2  3  2  0
  4  2  1  0
  4  5  1  0
  5  6  1  0
  6  7  1  0
  7  8  1  0
  8  9  2  0
  8 10  1  0
 10 11  1  0
  6 11  1  1
 11 12  2  0
  6 13  1  0
 13 14  2  0
 14 15  1  0
 15 16  1  0
 15 17  2  0
 17 18  1  0
 18 19  2  0
 19 13  1  0
 19 20  1  0
 20  4  1  0
  1 21  1  0
  1 22  1  0
  4 23  1  1
  5 24  1  0
  5 25  1  0
  7 26  1  0
 10 27  1  0
 14 28  1  0
 17 29  1  0
 18 30  1  0
M  END
> <ID>
HT0873

> <Class>
0.0

> <Clusters>
217

> <Fold>
4

$$$$