
     RDKit          3D

 56 61  0  0  0  0  0  0  0  0999 V2000
    4.4624    2.1562    0.8242 C   0  0  0  0  0  0  0  0  0  0  0  0
    5.3765    0.9671    0.5097 C   0  0  0  0  0  0  0  0  0  0  0  0
    4.8253   -0.0429   -0.5377 C   0  0  1  0  0  0  0  0  0  0  0  0
    4.7435    0.6067   -1.9462 C   0  0  0  0  0  0  0  0  0  0  0  0
    5.8309   -1.1870   -0.6270 C   0  0  0  0  0  0  0  0  0  0  0  0
    6.8942   -1.0567   -1.2922 O   0  0  0  0  0  0  0  0  0  0  0  0
    5.6153   -2.3848    0.0532 O   0  0  0  0  0  0  0  0  0  0  0  0
    4.6384   -2.4988    1.0764 C   0  0  0  0  0  0  0  0  0  0  0  0
    3.3735   -1.7941    0.6717 C   0  0  0  0  0  0  0  0  0  0  0  0
    3.4535   -0.5976   -0.0974 C   0  0  0  0  0  0  0  0  0  0  0  0
    2.2512    0.0855   -0.4029 C   0  0  0  0  0  0  0  0  0  0  0  0
    1.0459   -0.4477    0.0383 C   0  0  0  0  0  0  0  0  0  0  0  0
    0.9945   -1.5866    0.7538 N   0  0  0  0  0  0  0  0  0  0  0  0
   -0.3927   -1.9127    1.1058 C   0  0  0  0  0  0  0  0  0  0  0  0
   -1.1692   -0.7885    0.4653 C   0  0  0  0  0  0  0  0  0  0  0  0
   -0.2867    0.0627   -0.1521 C   0  0  0  0  0  0  0  0  0  0  0  0
   -0.6831    1.1456   -0.8569 N   0  0  0  0  0  0  0  0  0  0  0  0
   -2.0132    1.4132   -0.9843 C   0  0  0  0  0  0  0  0  0  0  0  0
   -2.4159    2.5143   -1.7358 C   0  0  0  0  0  0  0  0  0  0  0  0
   -3.7682    2.7675   -1.9514 C   0  0  0  0  0  0  0  0  0  0  0  0
   -4.1130    3.8471   -2.6991 F   0  0  0  0  0  0  0  0  0  0  0  0
   -4.7523    1.9066   -1.4298 C   0  0  0  0  0  0  0  0  0  0  0  0
   -6.2060    2.1789   -1.7330 C   0  0  0  0  0  0  0  0  0  0  0  0
   -4.3639    0.8084   -0.6156 C   0  0  0  0  0  0  0  0  0  0  0  0
   -5.3900   -0.1771   -0.0946 C   0  0  0  0  0  0  0  0  0  0  0  0
   -4.9336   -0.8047    1.2179 C   0  0  0  0  0  0  0  0  0  0  0  0
   -3.5556   -1.4762    1.0715 C   0  0  2  0  0  0  0  0  0  0  0  0
   -3.0759   -1.9028    2.3887 N   0  0  0  0  0  0  0  0  0  0  0  0
   -2.5538   -0.5486    0.3993 C   0  0  0  0  0  0  0  0  0  0  0  0
   -2.9873    0.5589   -0.3877 C   0  0  0  0  0  0  0  0  0  0  0  0
    2.1144   -2.2742    1.0979 C   0  0  0  0  0  0  0  0  0  0  0  0
    2.0221   -3.3213    1.7954 O   0  0  0  0  0  0  0  0  0  0  0  0
    3.5179    1.8156    1.2957 H   0  0  0  0  0  0  0  0  0  0  0  0
    4.9750    2.8263    1.5462 H   0  0  0  0  0  0  0  0  0  0  0  0
    4.2384    2.7479   -0.0855 H   0  0  0  0  0  0  0  0  0  0  0  0
    6.3533    1.3676    0.1580 H   0  0  0  0  0  0  0  0  0  0  0  0
    5.5726    0.4344    1.4666 H   0  0  0  0  0  0  0  0  0  0  0  0
    4.0984    1.5048   -1.9709 H   0  0  0  0  0  0  0  0  0  0  0  0
    5.7457    0.9428   -2.2891 H   0  0  0  0  0  0  0  0  0  0  0  0
    4.3487   -0.1248   -2.6843 H   0  0  0  0  0  0  0  0  0  0  0  0
    5.0280   -2.0319    2.0058 H   0  0  0  0  0  0  0  0  0  0  0  0
    4.4607   -3.5767    1.2737 H   0  0  0  0  0  0  0  0  0  0  0  0
    2.2367    1.0173   -0.9471 H   0  0  0  0  0  0  0  0  0  0  0  0
   -0.5118   -1.9041    2.2095 H   0  0  0  0  0  0  0  0  0  0  0  0
   -0.6863   -2.8916    0.6703 H   0  0  0  0  0  0  0  0  0  0  0  0
   -1.6742    3.1707   -2.1751 H   0  0  0  0  0  0  0  0  0  0  0  0
   -6.7188    2.5313   -0.8137 H   0  0  0  0  0  0  0  0  0  0  0  0
   -6.3347    2.9522   -2.5185 H   0  0  0  0  0  0  0  0  0  0  0  0
   -6.6988    1.2554   -2.1033 H   0  0  0  0  0  0  0  0  0  0  0  0
   -6.3641    0.3175    0.1005 H   0  0  0  0  0  0  0  0  0  0  0  0
   -5.5483   -0.9715   -0.8556 H   0  0  0  0  0  0  0  0  0  0  0  0
   -5.6832   -1.5597    1.5410 H   0  0  0  0  0  0  0  0  0  0  0  0
   -4.8897   -0.0107    1.9967 H   0  0  0  0  0  0  0  0  0  0  0  0
   -3.6620   -2.3772    0.4277 H   0  0  0  0  0  0  0  0  0  0  0  0
   -3.7625   -2.5771    2.7989 H   0  0  0  0  0  0  0  0  0  0  0  0
   -3.0222   -1.0749    3.0268 H   0  0  0  0  0  0  0  0  0  0  0  0
  1  2  1  0
  3  2  1  1
  3  4  1  0
  3  5  1  0
  5  6  2  0
  5  7  1  0
  7  8  1  0
  8  9  1  0
  9 10  2  0
 10  3  1  0
 10 11  1  0
 11 12  2  0
 12 13  1  0
 13 14  1  0
 14 15  1  0
 15 16  2  0
 16 12  1  0
 16 17  1  0
 17 18  2  0
 18 19  1  0
 19 20  2  0
 20 21  1  0
 20 22  1  0
 22 23  1  0
 22 24  2  0
 24 25  1  0
 25 26  1  0
 26 27  1  0
 27 28  1  0
 27 29  1  0
 29 15  1  0
 29 30  2  0
 30 18  1  0
 30 24  1  0
 13 31  1  0
 31  9  1  0
 31 32  2  0
  1 33  1  0
  1 34  1  0
  1 35  1  0
  2 36  1  0
  2 37  1  0
  4 38  1  0
  4 39  1  0
  4 40  1  0
  8 41  1  0
  8 42  1  0
 11 43  1  0
 14 44  1  0
 14 45  1  0
 19 46  1  0
 23 47  1  0
 23 48  1  0
 23 49  1  0
 25 50  1  0
 25 51  1  0
 26 52  1  0
 26 53  1  0
 27 54  1  6
 28 55  1  0
 28 56  1  0
M  END
> <ID>
HT0839

> <Class>
0.0

> <Clusters>
241

> <Fold>
4

$$$$