
     RDKit          3D

 32 32  0  0  0  0  0  0  0  0999 V2000
   -5.0122    0.4145   -0.5406 C   0  0  0  0  0  0  0  0  0  0  0  0
   -3.6231    0.7395   -0.0044 C   0  0  0  0  0  0  0  0  0  0  0  0
   -2.6054   -0.0100   -0.7554 N   0  0  0  0  0  0  0  0  0  0  0  0
   -1.2636    0.1350   -0.1513 C   0  0  1  0  0  0  0  0  0  0  0  0
   -1.0762   -0.9384    0.9341 C   0  0  0  0  0  0  0  0  0  0  0  0
   -0.1693   -0.0054   -1.2388 C   0  0  0  0  0  0  0  0  0  0  0  0
    1.2204    0.2333   -0.6978 C   0  0  0  0  0  0  0  0  0  0  0  0
    1.6065    1.5180   -0.2853 C   0  0  0  0  0  0  0  0  0  0  0  0
    2.8854    1.7373    0.2295 C   0  0  0  0  0  0  0  0  0  0  0  0
    3.7947    0.6815    0.3260 C   0  0  0  0  0  0  0  0  0  0  0  0
    3.4393   -0.6056   -0.1133 C   0  0  0  0  0  0  0  0  0  0  0  0
    2.1405   -0.8250   -0.6065 C   0  0  0  0  0  0  0  0  0  0  0  0
    4.4016   -1.7572    0.0356 C   0  0  0  0  0  0  0  0  0  0  0  0
    5.7113   -1.3159   -0.0433 F   0  0  0  0  0  0  0  0  0  0  0  0
    4.2028   -2.3601    1.2634 F   0  0  0  0  0  0  0  0  0  0  0  0
    4.2001   -2.6928   -0.9644 F   0  0  0  0  0  0  0  0  0  0  0  0
   -5.7775    0.9683    0.0431 H   0  0  0  0  0  0  0  0  0  0  0  0
   -5.0920    0.7130   -1.6075 H   0  0  0  0  0  0  0  0  0  0  0  0
   -5.2100   -0.6747   -0.4498 H   0  0  0  0  0  0  0  0  0  0  0  0
   -3.4442    1.8343   -0.0993 H   0  0  0  0  0  0  0  0  0  0  0  0
   -3.5982    0.4696    1.0726 H   0  0  0  0  0  0  0  0  0  0  0  0
   -2.5996    0.3847   -1.7260 H   0  0  0  0  0  0  0  0  0  0  0  0
   -1.1558    1.1399    0.3188 H   0  0  0  0  0  0  0  0  0  0  0  0
   -1.8522   -0.8462    1.7205 H   0  0  0  0  0  0  0  0  0  0  0  0
   -0.0895   -0.8264    1.4306 H   0  0  0  0  0  0  0  0  0  0  0  0
   -1.1432   -1.9543    0.4892 H   0  0  0  0  0  0  0  0  0  0  0  0
   -0.2428   -1.0148   -1.7012 H   0  0  0  0  0  0  0  0  0  0  0  0
   -0.3493    0.7325   -2.0507 H   0  0  0  0  0  0  0  0  0  0  0  0
    0.9148    2.3481   -0.3575 H   0  0  0  0  0  0  0  0  0  0  0  0
    3.1715    2.7277    0.5592 H   0  0  0  0  0  0  0  0  0  0  0  0
    4.7750    0.8712    0.7446 H   0  0  0  0  0  0  0  0  0  0  0  0
    1.8405   -1.8210   -0.9092 H   0  0  0  0  0  0  0  0  0  0  0  0
  1  2  1  0
  2  3  1  0
  3  4  1  0
  4  5  1  0
  4  6  1  0
  6  7  1  0
  7  8  2  0
  8  9  1  0
  9 10  2  0
 10 11  1  0
 11 12  2  0
 12  7  1  0
 11 13  1  0
 13 14  1  0
 13 15  1  0
 13 16  1  0
  1 17  1  0
  1 18  1  0
  1 19  1  0
  2 20  1  0
  2 21  1  0
  3 22  1  0
  4 23  1  1
  5 24  1  0
  5 25  1  0
  5 26  1  0
  6 27  1  0
  6 28  1  0
  8 29  1  0
  9 30  1  0
 10 31  1  0
 12 32  1  0
M  END
> <ID>
HT0858

> <Class>
0.0

> <Clusters>
164

> <Fold>
4

$$$$