
     RDKit          3D

 46 50  0  0  0  0  0  0  0  0999 V2000
    6.2072   -0.4855    0.6766 C   0  0  0  0  0  0  0  0  0  0  0  0
    4.9544   -1.2980    0.3919 C   0  0  0  0  0  0  0  0  0  0  0  0
    3.8216   -0.4346    0.3733 O   0  0  0  0  0  0  0  0  0  0  0  0
    2.5096   -0.8673    0.1408 C   0  0  0  0  0  0  0  0  0  0  0  0
    2.1678   -2.2285   -0.1211 C   0  0  0  0  0  0  0  0  0  0  0  0
    0.8255   -2.6019   -0.4125 C   0  0  0  0  0  0  0  0  0  0  0  0
   -0.1948   -1.6321   -0.3910 C   0  0  0  0  0  0  0  0  0  0  0  0
   -1.6489   -1.8644   -0.8166 C   0  0  0  0  0  0  0  0  0  0  0  0
   -2.6030   -0.5899   -0.6680 C   0  0  0  0  0  0  0  0  0  0  0  0
   -1.8143    0.7112   -0.9893 C   0  0  0  0  0  0  0  0  0  0  0  0
   -2.5273    2.0660   -0.9288 C   0  0  0  0  0  0  0  0  0  0  0  0
   -1.8638    3.2153   -0.5603 C   0  0  0  0  0  0  0  0  0  0  0  0
   -0.3985    3.2468   -0.0368 C   0  0  0  0  0  0  0  0  0  0  0  0
    0.3144    4.2708   -0.6768 O   0  0  0  0  0  0  0  0  0  0  0  0
    0.2562    1.8973   -0.3557 C   0  0  0  0  0  0  0  0  0  0  0  0
    1.5151    1.4676    0.1903 O   0  0  0  0  0  0  0  0  0  0  0  0
    1.4711    0.0641    0.1323 C   0  0  0  0  0  0  0  0  0  0  0  0
    0.1901   -0.3511   -0.0727 C   0  0  0  0  0  0  0  0  0  0  0  0
   -0.7023    0.7749    0.0280 C   0  0  0  0  0  0  0  0  0  0  0  0
   -1.2597    0.8206    1.4947 C   0  0  0  0  0  0  0  0  0  0  0  0
   -2.2230   -0.3477    1.7638 C   0  0  0  0  0  0  0  0  0  0  0  0
   -3.2188   -0.4628    0.6792 N   0  0  0  0  0  0  0  0  0  0  0  0
   -4.2009   -1.5204    0.9663 C   0  0  0  0  0  0  0  0  0  0  0  0
    6.3487    0.2827   -0.1128 H   0  0  0  0  0  0  0  0  0  0  0  0
    6.1174    0.0170    1.6630 H   0  0  0  0  0  0  0  0  0  0  0  0
    7.0931   -1.1549    0.6919 H   0  0  0  0  0  0  0  0  0  0  0  0
    4.8297   -2.0657    1.1860 H   0  0  0  0  0  0  0  0  0  0  0  0
    5.0619   -1.7992   -0.5944 H   0  0  0  0  0  0  0  0  0  0  0  0
    2.9309   -2.9943   -0.1389 H   0  0  0  0  0  0  0  0  0  0  0  0
    0.5929   -3.6287   -0.6632 H   0  0  0  0  0  0  0  0  0  0  0  0
   -1.6305   -2.1467   -1.8910 H   0  0  0  0  0  0  0  0  0  0  0  0
   -2.0527   -2.7395   -0.2715 H   0  0  0  0  0  0  0  0  0  0  0  0
   -3.4132   -0.6751   -1.4262 H   0  0  0  0  0  0  0  0  0  0  0  0
   -1.4060    0.6043   -2.0212 H   0  0  0  0  0  0  0  0  0  0  0  0
   -3.5623    2.1291   -1.2491 H   0  0  0  0  0  0  0  0  0  0  0  0
   -2.4216    4.1464   -0.5523 H   0  0  0  0  0  0  0  0  0  0  0  0
   -0.3883    3.4196    1.0628 H   0  0  0  0  0  0  0  0  0  0  0  0
   -0.0099    5.1265   -0.2916 H   0  0  0  0  0  0  0  0  0  0  0  0
    0.4035    1.8999   -1.4658 H   0  0  0  0  0  0  0  0  0  0  0  0
   -0.4289    0.7908    2.2343 H   0  0  0  0  0  0  0  0  0  0  0  0
   -1.8254    1.7544    1.6887 H   0  0  0  0  0  0  0  0  0  0  0  0
   -1.6540   -1.2949    1.8877 H   0  0  0  0  0  0  0  0  0  0  0  0
   -2.7428   -0.1519    2.7276 H   0  0  0  0  0  0  0  0  0  0  0  0
   -4.8834   -1.6702    0.1025 H   0  0  0  0  0  0  0  0  0  0  0  0
   -3.7091   -2.4839    1.2176 H   0  0  0  0  0  0  0  0  0  0  0  0
   -4.8277   -1.2159    1.8311 H   0  0  0  0  0  0  0  0  0  0  0  0
  1  2  1  0
  2  3  1  0
  3  4  1  0
  4  5  2  0
  5  6  1  0
  6  7  2  0
  7  8  1  0
  8  9  1  0
  9 10  1  0
 10 11  1  0
 11 12  2  0
 12 13  1  0
 13 14  1  0
 13 15  1  0
 15 16  1  0
 16 17  1  0
 17  4  1  0
 17 18  2  0
 18  7  1  0
 18 19  1  0
 19 10  1  0
 19 15  1  0
 19 20  1  0
 20 21  1  0
 21 22  1  0
 22  9  1  0
 22 23  1  0
  1 24  1  0
  1 25  1  0
  1 26  1  0
  2 27  1  0
  2 28  1  0
  5 29  1  0
  6 30  1  0
  8 31  1  0
  8 32  1  0
  9 33  1  0
 10 34  1  0
 11 35  1  0
 12 36  1  0
 13 37  1  0
 14 38  1  0
 15 39  1  0
 20 40  1  0
 20 41  1  0
 21 42  1  0
 21 43  1  0
 23 44  1  0
 23 45  1  0
 23 46  1  0
M  END
> <ID>
HT0822

> <Class>
0.0

> <Clusters>
63

> <Fold>
4

$$$$