
     RDKit          3D

 26 26  0  0  0  0  0  0  0  0999 V2000
   -4.2213    0.0198    0.7935 C   0  0  0  0  0  0  0  0  0  0  0  0
   -3.2470    0.3655   -0.2429 N   0  0  0  0  0  0  0  0  0  0  0  0
   -1.8843    0.0808    0.2236 C   0  0  0  0  0  0  0  0  0  0  0  0
   -0.8711    0.3370   -0.9107 C   0  0  2  0  0  0  0  0  0  0  0  0
   -1.1640   -0.4813   -2.0154 O   0  0  0  0  0  0  0  0  0  0  0  0
    0.5936    0.1805   -0.5209 C   0  0  0  0  0  0  0  0  0  0  0  0
    1.5716    0.5782   -1.4485 C   0  0  0  0  0  0  0  0  0  0  0  0
    2.9304    0.4555   -1.1508 C   0  0  0  0  0  0  0  0  0  0  0  0
    3.3390   -0.0700    0.0806 C   0  0  0  0  0  0  0  0  0  0  0  0
    4.6961   -0.1911    0.3755 O   0  0  0  0  0  0  0  0  0  0  0  0
    2.3750   -0.4754    1.0174 C   0  0  0  0  0  0  0  0  0  0  0  0
    2.7501   -1.0049    2.2520 O   0  0  0  0  0  0  0  0  0  0  0  0
    1.0132   -0.3514    0.7171 C   0  0  0  0  0  0  0  0  0  0  0  0
   -4.1885   -1.0705    1.0061 H   0  0  0  0  0  0  0  0  0  0  0  0
   -5.2426    0.2682    0.4353 H   0  0  0  0  0  0  0  0  0  0  0  0
   -4.0267    0.5906    1.7285 H   0  0  0  0  0  0  0  0  0  0  0  0
   -3.3255    1.3959   -0.4130 H   0  0  0  0  0  0  0  0  0  0  0  0
   -1.8140   -0.9844    0.5396 H   0  0  0  0  0  0  0  0  0  0  0  0
   -1.6393    0.7351    1.0915 H   0  0  0  0  0  0  0  0  0  0  0  0
   -1.0065    1.3942   -1.2291 H   0  0  0  0  0  0  0  0  0  0  0  0
   -1.0145   -1.4224   -1.7343 H   0  0  0  0  0  0  0  0  0  0  0  0
    1.2789    0.9871   -2.4080 H   0  0  0  0  0  0  0  0  0  0  0  0
    3.6664    0.7697   -1.8799 H   0  0  0  0  0  0  0  0  0  0  0  0
    5.4102    0.0944   -0.2843 H   0  0  0  0  0  0  0  0  0  0  0  0
    3.7212   -1.1159    2.5177 H   0  0  0  0  0  0  0  0  0  0  0  0
    0.2995   -0.6785    1.4596 H   0  0  0  0  0  0  0  0  0  0  0  0
  1  2  1  0
  2  3  1  0
  3  4  1  0
  4  5  1  0
  4  6  1  0
  6  7  2  0
  7  8  1  0
  8  9  2  0
  9 10  1  0
  9 11  1  0
 11 12  1  0
 11 13  2  0
 13  6  1  0
  1 14  1  0
  1 15  1  0
  1 16  1  0
  2 17  1  0
  3 18  1  0
  3 19  1  0
  4 20  1  6
  5 21  1  0
  7 22  1  0
  8 23  1  0
 10 24  1  0
 12 25  1  0
 13 26  1  0
M  END
> <ID>
HT0769

> <Class>
0.0

> <Clusters>
138

> <Fold>
4

$$$$