
     RDKit          3D

  7  7  0  0  0  0  0  0  0  0999 V2000
    0.7359    0.0638   -0.0649 C   0  0  0  0  0  0  0  0  0  0  0  0
   -0.7377   -0.0223   -0.0714 C   0  0  0  0  0  0  0  0  0  0  0  0
    0.0144   -0.3279    1.0785 O   0  0  0  0  0  0  0  0  0  0  0  0
    1.1685    1.0789    0.0550 H   0  0  0  0  0  0  0  0  0  0  0  0
    1.2804   -0.7921   -0.5153 H   0  0  0  0  0  0  0  0  0  0  0  0
   -1.2867    0.9354    0.0442 H   0  0  0  0  0  0  0  0  0  0  0  0
   -1.1749   -0.9356   -0.5262 H   0  0  0  0  0  0  0  0  0  0  0  0
  1  2  1  0
  2  3  1  0
  3  1  1  0
  1  4  1  0
  1  5  1  0
  2  6  1  0
  2  7  1  0
M  END
> <ID>
HT0819

> <Class>
0.0

> <Clusters>
248

> <Fold>
4

$$$$