
     RDKit          3D

 55 55  0  0  0  0  0  0  0  0999 V2000
    9.0405   -0.4275    0.3356 C   0  0  0  0  0  0  0  0  0  0  0  0
    7.7731    0.3979    0.1329 C   0  0  0  0  0  0  0  0  0  0  0  0
    6.5309   -0.4989    0.0787 C   0  0  0  0  0  0  0  0  0  0  0  0
    5.2595    0.3335   -0.1263 C   0  0  0  0  0  0  0  0  0  0  0  0
    4.0149   -0.5659   -0.1689 C   0  0  0  0  0  0  0  0  0  0  0  0
    2.7330    0.2108   -0.5083 C   0  0  0  0  0  0  0  0  0  0  0  0
    2.2620    1.1102    0.6478 C   0  0  0  0  0  0  0  0  0  0  0  0
    0.9410    1.8239    0.3220 C   0  0  0  0  0  0  0  0  0  0  0  0
   -0.2178    0.8633    0.2165 C   0  0  0  0  0  0  0  0  0  0  0  0
   -0.6938    0.1996    1.3584 C   0  0  0  0  0  0  0  0  0  0  0  0
   -1.7676   -0.6895    1.2627 C   0  0  0  0  0  0  0  0  0  0  0  0
   -2.3867   -0.9237    0.0248 C   0  0  0  0  0  0  0  0  0  0  0  0
   -3.5576   -1.8682   -0.0713 C   0  0  0  0  0  0  0  0  0  0  0  0
   -4.8382   -1.3220    0.5972 C   0  0  0  0  0  0  0  0  0  0  0  0
   -5.4826   -0.0560   -0.0544 C   0  0  0  0  0  0  0  0  0  0  0  0
   -4.5353    1.0667    0.0101 N   0  0  0  0  0  0  0  0  0  0  0  0
   -6.7618    0.3163    0.7497 C   0  0  0  0  0  0  0  0  0  0  0  0
   -7.7020   -0.7273    0.7377 O   0  0  0  0  0  0  0  0  0  0  0  0
   -5.8396   -0.3297   -1.5401 C   0  0  0  0  0  0  0  0  0  0  0  0
   -6.5169    0.7607   -2.1112 O   0  0  0  0  0  0  0  0  0  0  0  0
   -1.9113   -0.2596   -1.1174 C   0  0  0  0  0  0  0  0  0  0  0  0
   -0.8379    0.6302   -1.0214 C   0  0  0  0  0  0  0  0  0  0  0  0
    8.9855   -0.9904    1.2918 H   0  0  0  0  0  0  0  0  0  0  0  0
    9.9217    0.2472    0.3710 H   0  0  0  0  0  0  0  0  0  0  0  0
    9.1740   -1.1423   -0.5042 H   0  0  0  0  0  0  0  0  0  0  0  0
    7.8646    0.9697   -0.8163 H   0  0  0  0  0  0  0  0  0  0  0  0
    7.6774    1.1212    0.9719 H   0  0  0  0  0  0  0  0  0  0  0  0
    6.4472   -1.0696    1.0300 H   0  0  0  0  0  0  0  0  0  0  0  0
    6.6369   -1.2225   -0.7596 H   0  0  0  0  0  0  0  0  0  0  0  0
    5.3413    0.8981   -1.0811 H   0  0  0  0  0  0  0  0  0  0  0  0
    5.1686    1.0595    0.7094 H   0  0  0  0  0  0  0  0  0  0  0  0
    4.1611   -1.3423   -0.9517 H   0  0  0  0  0  0  0  0  0  0  0  0
    3.8916   -1.0894    0.8046 H   0  0  0  0  0  0  0  0  0  0  0  0
    2.8925    0.8218   -1.4237 H   0  0  0  0  0  0  0  0  0  0  0  0
    1.9392   -0.5331   -0.7358 H   0  0  0  0  0  0  0  0  0  0  0  0
    2.1490    0.5088    1.5759 H   0  0  0  0  0  0  0  0  0  0  0  0
    3.0266    1.8911    0.8427 H   0  0  0  0  0  0  0  0  0  0  0  0
    1.0633    2.4018   -0.6205 H   0  0  0  0  0  0  0  0  0  0  0  0
    0.7196    2.5616    1.1235 H   0  0  0  0  0  0  0  0  0  0  0  0
   -0.2352    0.3735    2.3238 H   0  0  0  0  0  0  0  0  0  0  0  0
   -2.1199   -1.1926    2.1545 H   0  0  0  0  0  0  0  0  0  0  0  0
   -3.7581   -2.1536   -1.1249 H   0  0  0  0  0  0  0  0  0  0  0  0
   -3.2777   -2.8134    0.4430 H   0  0  0  0  0  0  0  0  0  0  0  0
   -4.6181   -1.1140    1.6676 H   0  0  0  0  0  0  0  0  0  0  0  0
   -5.5819   -2.1487    0.5904 H   0  0  0  0  0  0  0  0  0  0  0  0
   -4.9844    1.9340   -0.3651 H   0  0  0  0  0  0  0  0  0  0  0  0
   -4.2900    1.2616    1.0087 H   0  0  0  0  0  0  0  0  0  0  0  0
   -6.4873    0.5187    1.8074 H   0  0  0  0  0  0  0  0  0  0  0  0
   -7.2151    1.2580    0.3612 H   0  0  0  0  0  0  0  0  0  0  0  0
   -8.3011   -0.5714   -0.0376 H   0  0  0  0  0  0  0  0  0  0  0  0
   -4.9109   -0.4803   -2.1269 H   0  0  0  0  0  0  0  0  0  0  0  0
   -6.4387   -1.2660   -1.6339 H   0  0  0  0  0  0  0  0  0  0  0  0
   -7.4866    0.5519   -2.0829 H   0  0  0  0  0  0  0  0  0  0  0  0
   -2.3740   -0.4253   -2.0820 H   0  0  0  0  0  0  0  0  0  0  0  0
   -0.4871    1.1318   -1.9147 H   0  0  0  0  0  0  0  0  0  0  0  0
  1  2  1  0
  2  3  1  0
  3  4  1  0
  4  5  1  0
  5  6  1  0
  6  7  1  0
  7  8  1  0
  8  9  1  0
  9 10  2  0
 10 11  1  0
 11 12  2  0
 12 13  1  0
 13 14  1  0
 14 15  1  0
 15 16  1  0
 15 17  1  0
 17 18  1  0
 15 19  1  0
 19 20  1  0
 12 21  1  0
 21 22  2  0
 22  9  1  0
  1 23  1  0
  1 24  1  0
  1 25  1  0
  2 26  1  0
  2 27  1  0
  3 28  1  0
  3 29  1  0
  4 30  1  0
  4 31  1  0
  5 32  1  0
  5 33  1  0
  6 34  1  0
  6 35  1  0
  7 36  1  0
  7 37  1  0
  8 38  1  0
  8 39  1  0
 10 40  1  0
 11 41  1  0
 13 42  1  0
 13 43  1  0
 14 44  1  0
 14 45  1  0
 16 46  1  0
 16 47  1  0
 17 48  1  0
 17 49  1  0
 18 50  1  0
 19 51  1  0
 19 52  1  0
 20 53  1  0
 21 54  1  0
 22 55  1  0
M  END
> <ID>
HT0877

> <Class>
0.0

> <Clusters>
48

> <Fold>
4

$$$$