
     RDKit          3D

 24 23  0  0  0  0  0  0  0  0999 V2000
    3.7662   -0.0783   -0.4906 N   0  0  0  0  0  0  0  0  0  0  0  0
    2.6018   -0.6139    0.2114 C   0  0  0  0  0  0  0  0  0  0  0  0
    1.2981    0.0044   -0.3156 C   0  0  0  0  0  0  0  0  0  0  0  0
    0.0760   -0.5843    0.4129 C   0  0  0  0  0  0  0  0  0  0  0  0
   -1.2749    0.1170    0.0799 C   0  0  0  0  0  0  0  0  0  0  0  0
   -1.1660    1.5469    0.4066 N   0  0  0  0  0  0  0  0  0  0  0  0
   -1.6397   -0.0182   -1.4217 C   0  0  0  0  0  0  0  0  0  0  0  0
   -0.8561    0.8131   -2.2036 F   0  0  0  0  0  0  0  0  0  0  0  0
   -1.4919   -1.3235   -1.8602 F   0  0  0  0  0  0  0  0  0  0  0  0
   -2.3719   -0.5610    0.9019 C   0  0  0  0  0  0  0  0  0  0  0  0
   -2.5925   -1.7904    0.7317 O   0  0  0  0  0  0  0  0  0  0  0  0
   -3.1498    0.1186    1.8420 O   0  0  0  0  0  0  0  0  0  0  0  0
    3.7854    0.9607   -0.3700 H   0  0  0  0  0  0  0  0  0  0  0  0
    3.6667   -0.2784   -1.5125 H   0  0  0  0  0  0  0  0  0  0  0  0
    2.5756   -1.7173    0.0772 H   0  0  0  0  0  0  0  0  0  0  0  0
    2.7072   -0.4010    1.2975 H   0  0  0  0  0  0  0  0  0  0  0  0
    1.2220   -0.2103   -1.4022 H   0  0  0  0  0  0  0  0  0  0  0  0
    1.3362    1.1051   -0.1688 H   0  0  0  0  0  0  0  0  0  0  0  0
    0.2486   -0.5075    1.5101 H   0  0  0  0  0  0  0  0  0  0  0  0
    0.0117   -1.6690    0.1730 H   0  0  0  0  0  0  0  0  0  0  0  0
   -0.9331    1.6700    1.4194 H   0  0  0  0  0  0  0  0  0  0  0  0
   -2.0717    2.0326    0.2087 H   0  0  0  0  0  0  0  0  0  0  0  0
   -2.6985    0.2826   -1.5782 H   0  0  0  0  0  0  0  0  0  0  0  0
   -3.0493    1.1022    2.0511 H   0  0  0  0  0  0  0  0  0  0  0  0
  1  2  1  0
  2  3  1  0
  3  4  1  0
  4  5  1  0
  5  6  1  0
  5  7  1  0
  7  8  1  0
  7  9  1  0
  5 10  1  0
 10 11  2  0
 10 12  1  0
  1 13  1  0
  1 14  1  0
  2 15  1  0
  2 16  1  0
  3 17  1  0
  3 18  1  0
  4 19  1  0
  4 20  1  0
  6 21  1  0
  6 22  1  0
  7 23  1  0
 12 24  1  0
M  END
> <ID>
HT0747

> <Class>
0.0

> <Clusters>
148

> <Fold>
4

$$$$