
     RDKit          3D

 38 40  0  0  0  0  0  0  0  0999 V2000
    4.6859    0.5734    1.6404 C   0  0  0  0  0  0  0  0  0  0  0  0
    3.2229    0.3055    1.5450 C   0  0  0  0  0  0  0  0  0  0  0  0
    2.6634   -0.4126    2.4176 O   0  0  0  0  0  0  0  0  0  0  0  0
    2.4873    0.8498    0.4853 O   0  0  0  0  0  0  0  0  0  0  0  0
    1.0859    0.6287    0.3087 C   0  0  1  0  0  0  0  0  0  0  0  0
    0.5382    1.6634   -0.6815 C   0  0  0  0  0  0  0  0  0  0  0  0
   -0.9714    1.7036   -0.9038 C   0  0  0  0  0  0  0  0  0  0  0  0
   -1.4396    2.7636   -1.7041 C   0  0  0  0  0  0  0  0  0  0  0  0
   -2.7981    2.9175   -1.9783 C   0  0  0  0  0  0  0  0  0  0  0  0
   -3.7198    2.0097   -1.4674 C   0  0  0  0  0  0  0  0  0  0  0  0
   -3.2864    0.9447   -0.6803 C   0  0  0  0  0  0  0  0  0  0  0  0
   -1.9225    0.7746   -0.3778 C   0  0  0  0  0  0  0  0  0  0  0  0
   -1.5357   -0.3763    0.3994 N   0  0  0  0  0  0  0  0  0  0  0  0
   -2.1305   -0.6372    1.6909 C   0  0  0  0  0  0  0  0  0  0  0  0
   -3.0134    0.1384    2.1477 O   0  0  0  0  0  0  0  0  0  0  0  0
   -1.7104   -1.7467    2.4914 N   0  0  0  0  0  0  0  0  0  0  0  0
   -0.5164   -1.2360   -0.1218 C   0  0  0  0  0  0  0  0  0  0  0  0
   -0.8386   -2.5187   -0.5864 C   0  0  0  0  0  0  0  0  0  0  0  0
    0.1559   -3.3362   -1.1283 C   0  0  0  0  0  0  0  0  0  0  0  0
    1.4701   -2.8709   -1.2188 C   0  0  0  0  0  0  0  0  0  0  0  0
    1.7947   -1.5904   -0.7606 C   0  0  0  0  0  0  0  0  0  0  0  0
    0.8017   -0.7692   -0.1930 C   0  0  0  0  0  0  0  0  0  0  0  0
    4.9093    1.0899    2.5972 H   0  0  0  0  0  0  0  0  0  0  0  0
    5.0134    1.2168    0.7970 H   0  0  0  0  0  0  0  0  0  0  0  0
    5.2438   -0.3854    1.6008 H   0  0  0  0  0  0  0  0  0  0  0  0
    0.5881    0.7887    1.2920 H   0  0  0  0  0  0  0  0  0  0  0  0
    1.0346    1.5132   -1.6659 H   0  0  0  0  0  0  0  0  0  0  0  0
    0.8514    2.6649   -0.3117 H   0  0  0  0  0  0  0  0  0  0  0  0
   -0.7429    3.4825   -2.1191 H   0  0  0  0  0  0  0  0  0  0  0  0
   -3.1356    3.7414   -2.5939 H   0  0  0  0  0  0  0  0  0  0  0  0
   -4.7728    2.1249   -1.6900 H   0  0  0  0  0  0  0  0  0  0  0  0
   -4.0173    0.2322   -0.3189 H   0  0  0  0  0  0  0  0  0  0  0  0
   -0.9311   -2.3760    2.2006 H   0  0  0  0  0  0  0  0  0  0  0  0
   -2.1645   -1.9225    3.4150 H   0  0  0  0  0  0  0  0  0  0  0  0
   -1.8590   -2.8766   -0.5327 H   0  0  0  0  0  0  0  0  0  0  0  0
   -0.0936   -4.3263   -1.4871 H   0  0  0  0  0  0  0  0  0  0  0  0
    2.2373   -3.5011   -1.6499 H   0  0  0  0  0  0  0  0  0  0  0  0
    2.8157   -1.2454   -0.8577 H   0  0  0  0  0  0  0  0  0  0  0  0
  1  2  1  0
  2  3  2  0
  2  4  1  0
  5  4  1  0
  5  6  1  0
  6  7  1  0
  7  8  2  0
  8  9  1  0
  9 10  2  0
 10 11  1  0
 11 12  2  0
 12  7  1  0
 12 13  1  0
 13 14  1  0
 14 15  2  0
 14 16  1  0
 13 17  1  0
 17 18  2  0
 18 19  1  0
 19 20  2  0
 20 21  1  0
 21 22  2  0
 22  5  1  0
 22 17  1  0
  1 23  1  0
  1 24  1  0
  1 25  1  0
  5 26  1  1
  6 27  1  0
  6 28  1  0
  8 29  1  0
  9 30  1  0
 10 31  1  0
 11 32  1  0
 16 33  1  0
 16 34  1  0
 18 35  1  0
 19 36  1  0
 20 37  1  0
 21 38  1  0
M  END
> <ID>
HT0786

> <Class>
0.0

> <Clusters>
186

> <Fold>
4

$$$$