
     RDKit          3D

 36 38  0  0  0  0  0  0  0  0999 V2000
    4.5973    1.9093   -0.9338 C   0  0  0  0  0  0  0  0  0  0  0  0
    4.2420    1.3934    0.4561 C   0  0  0  0  0  0  0  0  0  0  0  0
    3.0084    0.6790    0.4286 O   0  0  0  0  0  0  0  0  0  0  0  0
    2.8651   -0.6003   -0.1176 C   0  0  0  0  0  0  0  0  0  0  0  0
    3.8764   -1.2274   -0.5358 O   0  0  0  0  0  0  0  0  0  0  0  0
    1.5360   -1.2271   -0.2345 C   0  0  0  0  0  0  0  0  0  0  0  0
    1.3369   -2.3708   -0.9241 N   0  0  0  0  0  0  0  0  0  0  0  0
    0.0055   -2.5796   -0.8647 C   0  0  0  0  0  0  0  0  0  0  0  0
   -0.6403   -1.6138   -0.1799 N   0  0  0  0  0  0  0  0  0  0  0  0
    0.3143   -0.7722    0.2473 C   0  0  0  0  0  0  0  0  0  0  0  0
   -0.0024    0.4533    1.0397 C   0  0  0  0  0  0  0  0  0  0  0  0
   -0.7488    1.3718    0.1823 N   0  0  0  0  0  0  0  0  0  0  0  0
   -0.1438    2.6418   -0.2321 C   0  0  0  0  0  0  0  0  0  0  0  0
   -2.0719    1.0295   -0.2884 C   0  0  0  0  0  0  0  0  0  0  0  0
   -2.7126    1.8716   -0.9769 O   0  0  0  0  0  0  0  0  0  0  0  0
   -2.7388   -0.2651    0.0397 C   0  0  0  0  0  0  0  0  0  0  0  0
   -4.1291   -0.2472    0.2645 C   0  0  0  0  0  0  0  0  0  0  0  0
   -4.8314   -1.4265    0.5167 C   0  0  0  0  0  0  0  0  0  0  0  0
   -6.1685   -1.3849    0.7374 F   0  0  0  0  0  0  0  0  0  0  0  0
   -4.1610   -2.6469    0.5374 C   0  0  0  0  0  0  0  0  0  0  0  0
   -2.7866   -2.6928    0.3074 C   0  0  0  0  0  0  0  0  0  0  0  0
   -2.0571   -1.5158    0.0592 C   0  0  0  0  0  0  0  0  0  0  0  0
    3.7724    2.5423   -1.3242 H   0  0  0  0  0  0  0  0  0  0  0  0
    4.7678    1.0627   -1.6308 H   0  0  0  0  0  0  0  0  0  0  0  0
    5.5241    2.5183   -0.8801 H   0  0  0  0  0  0  0  0  0  0  0  0
    4.1296    2.2626    1.1379 H   0  0  0  0  0  0  0  0  0  0  0  0
    5.0555    0.7471    0.8512 H   0  0  0  0  0  0  0  0  0  0  0  0
   -0.4852   -3.4181   -1.3419 H   0  0  0  0  0  0  0  0  0  0  0  0
   -0.6287    0.1741    1.9141 H   0  0  0  0  0  0  0  0  0  0  0  0
    0.9033    0.9249    1.4614 H   0  0  0  0  0  0  0  0  0  0  0  0
   -0.0921    2.6874   -1.3405 H   0  0  0  0  0  0  0  0  0  0  0  0
   -0.7575    3.4884    0.1416 H   0  0  0  0  0  0  0  0  0  0  0  0
    0.8876    2.7556    0.1635 H   0  0  0  0  0  0  0  0  0  0  0  0
   -4.6753    0.6883    0.2490 H   0  0  0  0  0  0  0  0  0  0  0  0
   -4.7065   -3.5613    0.7326 H   0  0  0  0  0  0  0  0  0  0  0  0
   -2.2847   -3.6515    0.3374 H   0  0  0  0  0  0  0  0  0  0  0  0
  1  2  1  0
  2  3  1  0
  3  4  1  0
  4  5  2  0
  4  6  1  0
  6  7  1  0
  7  8  2  0
  8  9  1  0
  9 10  1  0
 10  6  2  0
 10 11  1  0
 11 12  1  0
 12 13  1  0
 12 14  1  0
 14 15  2  0
 14 16  1  0
 16 17  2  0
 17 18  1  0
 18 19  1  0
 18 20  2  0
 20 21  1  0
 21 22  2  0
 22  9  1  0
 22 16  1  0
  1 23  1  0
  1 24  1  0
  1 25  1  0
  2 26  1  0
  2 27  1  0
  8 28  1  0
 11 29  1  0
 11 30  1  0
 13 31  1  0
 13 32  1  0
 13 33  1  0
 17 34  1  0
 20 35  1  0
 21 36  1  0
M  END
> <ID>
HT0897

> <Class>
0.0

> <Clusters>
232

> <Fold>
4

$$$$