
     RDKit          3D

 58 60  0  0  0  0  0  0  0  0999 V2000
  -11.6445    0.3690   -1.5118 C   0  0  0  0  0  0  0  0  0  0  0  0
  -10.4976    0.7273   -0.6289 C   0  0  0  0  0  0  0  0  0  0  0  0
  -10.6074    1.3381    0.5270 O   0  0  0  0  0  0  0  0  0  0  0  0
   -9.4397    1.5171    1.0724 N   0  0  0  0  0  0  0  0  0  0  0  0
   -8.5260    0.9976    0.2274 C   0  0  0  0  0  0  0  0  0  0  0  0
   -9.1669    0.4768   -0.8820 C   0  0  0  0  0  0  0  0  0  0  0  0
   -7.0775    1.0009    0.4968 C   0  0  0  0  0  0  0  0  0  0  0  0
   -6.6618    1.4787    1.5871 O   0  0  0  0  0  0  0  0  0  0  0  0
   -6.1417    0.4779   -0.4598 N   0  0  0  0  0  0  0  0  0  0  0  0
   -4.7066    0.4076   -0.1911 C   0  0  0  0  0  0  0  0  0  0  0  0
   -4.3994   -0.7376    0.7796 C   0  0  0  0  0  0  0  0  0  0  0  0
   -2.9172   -0.8573    1.0227 C   0  0  0  0  0  0  0  0  0  0  0  0
   -2.1968   -1.9512    0.5156 C   0  0  0  0  0  0  0  0  0  0  0  0
   -0.8222   -2.0592    0.7465 C   0  0  0  0  0  0  0  0  0  0  0  0
   -0.1531   -1.0813    1.4943 C   0  0  0  0  0  0  0  0  0  0  0  0
   -0.8677    0.0129    1.9991 C   0  0  0  0  0  0  0  0  0  0  0  0
   -2.2420    0.1226    1.7689 C   0  0  0  0  0  0  0  0  0  0  0  0
    1.5815   -1.2075    1.7676 S   0  0  0  0  0  0  0  0  0  0  0  0
    1.9818   -2.6562    1.7981 O   0  0  0  0  0  0  0  0  0  0  0  0
    1.9294   -0.5727    3.0850 O   0  0  0  0  0  0  0  0  0  0  0  0
    2.4187   -0.3960    0.4872 N   0  0  0  0  0  0  0  0  0  0  0  0
    3.8474   -0.3271    0.4458 C   0  0  0  0  0  0  0  0  0  0  0  0
    4.5280   -0.8647    1.3603 O   0  0  0  0  0  0  0  0  0  0  0  0
    4.4938    0.3630   -0.6397 N   0  0  0  0  0  0  0  0  0  0  0  0
    5.8952    0.4674   -0.8002 N   0  0  0  0  0  0  0  0  0  0  0  0
    6.5002    1.1639    0.3507 C   0  0  0  0  0  0  0  0  0  0  0  0
    7.7744    1.8900   -0.0975 C   0  0  0  0  0  0  0  0  0  0  0  0
    9.0535    1.0327   -0.0374 C   0  0  0  0  0  0  0  0  0  0  0  0
    8.8956   -0.4625   -0.3738 C   0  0  0  0  0  0  0  0  0  0  0  0
    7.9330   -0.7565   -1.5354 C   0  0  0  0  0  0  0  0  0  0  0  0
    6.4739   -0.8605   -1.0656 C   0  0  0  0  0  0  0  0  0  0  0  0
  -11.6714   -0.7306   -1.6610 H   0  0  0  0  0  0  0  0  0  0  0  0
  -12.5981    0.6956   -1.0468 H   0  0  0  0  0  0  0  0  0  0  0  0
  -11.5296    0.8710   -2.4950 H   0  0  0  0  0  0  0  0  0  0  0  0
   -8.7424   -0.0166   -1.7457 H   0  0  0  0  0  0  0  0  0  0  0  0
   -6.4732    0.1889   -1.4064 H   0  0  0  0  0  0  0  0  0  0  0  0
   -4.1673    0.2259   -1.1468 H   0  0  0  0  0  0  0  0  0  0  0  0
   -4.3548    1.3792    0.2189 H   0  0  0  0  0  0  0  0  0  0  0  0
   -4.9131   -0.5680    1.7501 H   0  0  0  0  0  0  0  0  0  0  0  0
   -4.8010   -1.6831    0.3531 H   0  0  0  0  0  0  0  0  0  0  0  0
   -2.6960   -2.7172   -0.0647 H   0  0  0  0  0  0  0  0  0  0  0  0
   -0.2807   -2.9035    0.3393 H   0  0  0  0  0  0  0  0  0  0  0  0
   -0.3622    0.7819    2.5691 H   0  0  0  0  0  0  0  0  0  0  0  0
   -2.7809    0.9708    2.1728 H   0  0  0  0  0  0  0  0  0  0  0  0
    1.8573    0.0512   -0.2711 H   0  0  0  0  0  0  0  0  0  0  0  0
    3.8908    0.8240   -1.3567 H   0  0  0  0  0  0  0  0  0  0  0  0
    5.7939    1.9375    0.7287 H   0  0  0  0  0  0  0  0  0  0  0  0
    6.7120    0.4729    1.1962 H   0  0  0  0  0  0  0  0  0  0  0  0
    7.9281    2.7801    0.5514 H   0  0  0  0  0  0  0  0  0  0  0  0
    7.6353    2.2760   -1.1317 H   0  0  0  0  0  0  0  0  0  0  0  0
    9.7993    1.4787   -0.7313 H   0  0  0  0  0  0  0  0  0  0  0  0
    9.4855    1.1082    0.9845 H   0  0  0  0  0  0  0  0  0  0  0  0
    9.9006   -0.8553   -0.6425 H   0  0  0  0  0  0  0  0  0  0  0  0
    8.5824   -1.0195    0.5363 H   0  0  0  0  0  0  0  0  0  0  0  0
    8.0339    0.0055   -2.3388 H   0  0  0  0  0  0  0  0  0  0  0  0
    8.2167   -1.7373   -1.9760 H   0  0  0  0  0  0  0  0  0  0  0  0
    5.8945   -1.3457   -1.8822 H   0  0  0  0  0  0  0  0  0  0  0  0
    6.4023   -1.5239   -0.1768 H   0  0  0  0  0  0  0  0  0  0  0  0
  1  2  1  0
  2  3  1  0
  3  4  1  0
  4  5  2  0
  5  6  1  0
  6  2  2  0
  5  7  1  0
  7  8  2  0
  7  9  1  0
  9 10  1  0
 10 11  1  0
 11 12  1  0
 12 13  2  0
 13 14  1  0
 14 15  2  0
 15 16  1  0
 16 17  2  0
 17 12  1  0
 15 18  1  0
 18 19  2  0
 18 20  2  0
 18 21  1  0
 21 22  1  0
 22 23  2  0
 22 24  1  0
 24 25  1  0
 25 26  1  0
 26 27  1  0
 27 28  1  0
 28 29  1  0
 29 30  1  0
 30 31  1  0
 31 25  1  0
  1 32  1  0
  1 33  1  0
  1 34  1  0
  6 35  1  0
  9 36  1  0
 10 37  1  0
 10 38  1  0
 11 39  1  0
 11 40  1  0
 13 41  1  0
 14 42  1  0
 16 43  1  0
 17 44  1  0
 21 45  1  0
 24 46  1  0
 26 47  1  0
 26 48  1  0
 27 49  1  0
 27 50  1  0
 28 51  1  0
 28 52  1  0
 29 53  1  0
 29 54  1  0
 30 55  1  0
 30 56  1  0
 31 57  1  0
 31 58  1  0
M  END
> <ID>
HT0990

> <Class>
0.0

> <Clusters>
230

> <Fold>
4

$$$$