
     RDKit          3D

 51 51  0  0  0  0  0  0  0  0999 V2000
    6.1949    1.6287    1.8780 C   0  0  0  0  0  0  0  0  0  0  0  0
    5.2306    1.8981    0.7260 C   0  0  0  0  0  0  0  0  0  0  0  0
    4.2767    0.8437    0.6001 O   0  0  0  0  0  0  0  0  0  0  0  0
    4.5899   -0.4440    0.1519 C   0  0  0  0  0  0  0  0  0  0  0  0
    5.7644   -0.7338   -0.2064 O   0  0  0  0  0  0  0  0  0  0  0  0
    3.5162   -1.4871    0.1149 C   0  0  0  0  0  0  0  0  0  0  0  0
    3.4275   -2.1519   -1.2669 C   0  0  0  0  0  0  0  0  0  0  0  0
    2.2059   -3.0902   -1.3807 C   0  0  0  0  0  0  0  0  0  0  0  0
    1.0791   -2.5296   -2.2705 C   0  0  0  0  0  0  0  0  0  0  0  0
    0.4488   -1.2195   -1.7653 C   0  0  0  0  0  0  0  0  0  0  0  0
   -0.4040   -1.4188   -0.5011 C   0  0  0  0  0  0  0  0  0  0  0  0
   -0.9720   -0.0957    0.0378 C   0  0  0  0  0  0  0  0  0  0  0  0
   -1.9970    0.5498   -0.9220 C   0  0  0  0  0  0  0  0  0  0  0  0
   -2.8846    1.6760   -0.3090 C   0  0  0  0  0  0  0  0  0  0  0  0
   -2.2086    2.4689    0.8187 C   0  0  0  0  0  0  0  0  0  0  0  0
   -4.2715    1.2087    0.1267 C   0  0  0  0  0  0  0  0  0  0  0  0
   -4.4393   -0.0270    0.7889 C   0  0  0  0  0  0  0  0  0  0  0  0
   -5.7019   -0.4493    1.2144 C   0  0  0  0  0  0  0  0  0  0  0  0
   -6.8184    0.3567    1.0023 C   0  0  0  0  0  0  0  0  0  0  0  0
   -6.6762    1.5861    0.3610 C   0  0  0  0  0  0  0  0  0  0  0  0
   -5.4181    2.0230   -0.0760 C   0  0  0  0  0  0  0  0  0  0  0  0
   -5.3588    3.9431   -0.9888 I   0  0  0  0  0  0  0  0  0  0  0  0
    6.8538    0.7660    1.6393 H   0  0  0  0  0  0  0  0  0  0  0  0
    5.6275    1.4090    2.8072 H   0  0  0  0  0  0  0  0  0  0  0  0
    6.8324    2.5234    2.0482 H   0  0  0  0  0  0  0  0  0  0  0  0
    5.7874    2.0262   -0.2264 H   0  0  0  0  0  0  0  0  0  0  0  0
    4.6865    2.8425    0.9377 H   0  0  0  0  0  0  0  0  0  0  0  0
    3.7376   -2.2566    0.8842 H   0  0  0  0  0  0  0  0  0  0  0  0
    2.5479   -1.0119    0.3727 H   0  0  0  0  0  0  0  0  0  0  0  0
    3.4078   -1.3772   -2.0655 H   0  0  0  0  0  0  0  0  0  0  0  0
    4.3524   -2.7506   -1.4244 H   0  0  0  0  0  0  0  0  0  0  0  0
    1.8107   -3.3701   -0.3806 H   0  0  0  0  0  0  0  0  0  0  0  0
    2.5446   -4.0423   -1.8465 H   0  0  0  0  0  0  0  0  0  0  0  0
    0.2845   -3.3013   -2.3725 H   0  0  0  0  0  0  0  0  0  0  0  0
    1.4875   -2.3542   -3.2901 H   0  0  0  0  0  0  0  0  0  0  0  0
   -0.2032   -0.8350   -2.5790 H   0  0  0  0  0  0  0  0  0  0  0  0
    1.2328   -0.4536   -1.5858 H   0  0  0  0  0  0  0  0  0  0  0  0
   -1.2368   -2.1256   -0.7136 H   0  0  0  0  0  0  0  0  0  0  0  0
    0.2183   -1.8662    0.3023 H   0  0  0  0  0  0  0  0  0  0  0  0
   -0.1353    0.6119    0.2199 H   0  0  0  0  0  0  0  0  0  0  0  0
   -1.4363   -0.3054    1.0204 H   0  0  0  0  0  0  0  0  0  0  0  0
   -2.6483   -0.2332   -1.3687 H   0  0  0  0  0  0  0  0  0  0  0  0
   -1.4233    0.9904   -1.7662 H   0  0  0  0  0  0  0  0  0  0  0  0
   -3.0197    2.3940   -1.1429 H   0  0  0  0  0  0  0  0  0  0  0  0
   -1.2108    2.8294    0.4924 H   0  0  0  0  0  0  0  0  0  0  0  0
   -2.8243    3.3553    1.0811 H   0  0  0  0  0  0  0  0  0  0  0  0
   -2.0962    1.8490    1.7325 H   0  0  0  0  0  0  0  0  0  0  0  0
   -3.6035   -0.6815    0.9741 H   0  0  0  0  0  0  0  0  0  0  0  0
   -5.8135   -1.4031    1.7145 H   0  0  0  0  0  0  0  0  0  0  0  0
   -7.7945    0.0285    1.3372 H   0  0  0  0  0  0  0  0  0  0  0  0
   -7.5496    2.2062    0.2065 H   0  0  0  0  0  0  0  0  0  0  0  0
  1  2  1  0
  2  3  1  0
  3  4  1  0
  4  5  2  0
  4  6  1  0
  6  7  1  0
  7  8  1  0
  8  9  1  0
  9 10  1  0
 10 11  1  0
 11 12  1  0
 12 13  1  0
 13 14  1  0
 14 15  1  0
 14 16  1  0
 16 17  2  0
 17 18  1  0
 18 19  2  0
 19 20  1  0
 20 21  2  0
 21 16  1  0
 21 22  1  0
  1 23  1  0
  1 24  1  0
  1 25  1  0
  2 26  1  0
  2 27  1  0
  6 28  1  0
  6 29  1  0
  7 30  1  0
  7 31  1  0
  8 32  1  0
  8 33  1  0
  9 34  1  0
  9 35  1  0
 10 36  1  0
 10 37  1  0
 11 38  1  0
 11 39  1  0
 12 40  1  0
 12 41  1  0
 13 42  1  0
 13 43  1  0
 14 44  1  0
 15 45  1  0
 15 46  1  0
 15 47  1  0
 17 48  1  0
 18 49  1  0
 19 50  1  0
 20 51  1  0
M  END
> <ID>
HT1113

> <Class>
0.0

> <Clusters>
270

> <Fold>
4

$$$$