
     RDKit          3D

 17 16  0  0  0  0  0  0  0  0999 V2000
   -0.7574   -1.6907   -0.5351 N   0  0  0  0  0  0  0  0  0  0  0  0
   -0.6568   -0.2372   -0.3611 C   0  0  0  0  0  0  0  0  0  0  0  0
    0.4838    0.1092    0.6133 C   0  0  0  0  0  0  0  0  0  0  0  0
    1.8233   -0.3054    0.0709 C   0  0  0  0  0  0  0  0  0  0  0  0
    2.1065   -1.5287   -0.0347 O   0  0  0  0  0  0  0  0  0  0  0  0
    2.7871    0.6759   -0.3129 N   0  0  0  0  0  0  0  0  0  0  0  0
   -1.9570    0.3599    0.1246 C   0  0  0  0  0  0  0  0  0  0  0  0
   -2.9311   -0.3748    0.4438 O   0  0  0  0  0  0  0  0  0  0  0  0
   -2.0839    1.7432    0.2112 O   0  0  0  0  0  0  0  0  0  0  0  0
   -1.0385   -2.1355    0.3697 H   0  0  0  0  0  0  0  0  0  0  0  0
   -1.5025   -1.8973   -1.2400 H   0  0  0  0  0  0  0  0  0  0  0  0
   -0.4281    0.2198   -1.3496 H   0  0  0  0  0  0  0  0  0  0  0  0
    0.3167   -0.3885    1.5935 H   0  0  0  0  0  0  0  0  0  0  0  0
    0.4909    1.2061    0.7953 H   0  0  0  0  0  0  0  0  0  0  0  0
    3.7189    0.3815   -0.6808 H   0  0  0  0  0  0  0  0  0  0  0  0
    2.5740    1.6954   -0.2400 H   0  0  0  0  0  0  0  0  0  0  0  0
   -2.9463    2.1672    0.5317 H   0  0  0  0  0  0  0  0  0  0  0  0
  1  2  1  0
  2  3  1  0
  3  4  1  0
  4  5  2  0
  4  6  1  0
  2  7  1  0
  7  8  2  0
  7  9  1  0
  1 10  1  0
  1 11  1  0
  2 12  1  0
  3 13  1  0
  3 14  1  0
  6 15  1  0
  6 16  1  0
  9 17  1  0
M  END
> <ID>
HT1174

> <Class>
0.0

> <Clusters>
148

> <Fold>
4

$$$$