
     RDKit          3D

 24 24  0  0  0  0  0  0  0  0999 V2000
   -2.5609    1.0575    0.0592 O   0  0  0  0  0  0  0  0  0  0  0  0
   -1.2959    0.6186   -0.3673 C   0  0  2  0  0  0  0  0  0  0  0  0
   -1.1771   -0.8996   -0.1222 C   0  0  2  0  0  0  0  0  0  0  0  0
   -1.4119   -1.2026    1.2315 O   0  0  0  0  0  0  0  0  0  0  0  0
    0.2193   -1.4094   -0.5339 C   0  0  2  0  0  0  0  0  0  0  0  0
    0.3290   -2.7804   -0.2487 O   0  0  0  0  0  0  0  0  0  0  0  0
    1.3339   -0.6416    0.2076 C   0  0  1  0  0  0  0  0  0  0  0  0
    2.5892   -1.0737   -0.2526 O   0  0  0  0  0  0  0  0  0  0  0  0
    1.2065    0.8769   -0.0342 C   0  0  2  0  0  0  0  0  0  0  0  0
    2.1820    1.5588    0.7127 O   0  0  0  0  0  0  0  0  0  0  0  0
   -0.1852    1.3892    0.3806 C   0  0  1  0  0  0  0  0  0  0  0  0
   -0.2707    2.7589    0.0786 O   0  0  0  0  0  0  0  0  0  0  0  0
   -2.7787    1.8723   -0.4646 H   0  0  0  0  0  0  0  0  0  0  0  0
   -1.1870    0.7982   -1.4644 H   0  0  0  0  0  0  0  0  0  0  0  0
   -1.9308   -1.4194   -0.7603 H   0  0  0  0  0  0  0  0  0  0  0  0
   -2.3963   -1.2293    1.3568 H   0  0  0  0  0  0  0  0  0  0  0  0
    0.3541   -1.2483   -1.6304 H   0  0  0  0  0  0  0  0  0  0  0  0
   -0.2031   -3.2601   -0.9362 H   0  0  0  0  0  0  0  0  0  0  0  0
    1.2490   -0.8314    1.3047 H   0  0  0  0  0  0  0  0  0  0  0  0
    2.7996   -1.9172    0.2271 H   0  0  0  0  0  0  0  0  0  0  0  0
    1.3483    1.0877   -1.1220 H   0  0  0  0  0  0  0  0  0  0  0  0
    3.0298    1.5073    0.1986 H   0  0  0  0  0  0  0  0  0  0  0  0
   -0.3044    1.2351    1.4805 H   0  0  0  0  0  0  0  0  0  0  0  0
   -0.9385    3.1525    0.6990 H   0  0  0  0  0  0  0  0  0  0  0  0
  2  1  1  0
  2  3  1  0
  3  4  1  0
  3  5  1  0
  5  6  1  0
  5  7  1  0
  7  8  1  0
  7  9  1  0
  9 10  1  0
  9 11  1  0
 11  2  1  0
 11 12  1  0
  1 13  1  0
  2 14  1  6
  3 15  1  6
  4 16  1  0
  5 17  1  6
  6 18  1  0
  7 19  1  1
  8 20  1  0
  9 21  1  6
 10 22  1  0
 11 23  1  1
 12 24  1  0
M  END
> <ID>
HT1098

> <Class>
0.0

> <Clusters>
70

> <Fold>
4

$$$$