
     RDKit          3D

 30 31  0  0  0  0  0  0  0  0999 V2000
    6.1686    0.3583   -0.9567 C   0  0  0  0  0  0  0  0  0  0  0  0
    4.9422   -0.4094   -0.5967 C   0  0  0  0  0  0  0  0  0  0  0  0
    4.8739   -1.7176   -0.5263 O   0  0  0  0  0  0  0  0  0  0  0  0
    3.6775   -2.1046   -0.1914 N   0  0  0  0  0  0  0  0  0  0  0  0
    2.9325   -0.9915   -0.0351 C   0  0  0  0  0  0  0  0  0  0  0  0
    3.7099    0.1238   -0.2885 C   0  0  0  0  0  0  0  0  0  0  0  0
    1.5077   -1.0144    0.3389 C   0  0  0  0  0  0  0  0  0  0  0  0
    0.9330   -2.1272    0.4826 O   0  0  0  0  0  0  0  0  0  0  0  0
    0.7725    0.2044    0.5464 N   0  0  0  0  0  0  0  0  0  0  0  0
   -0.6042    0.2124    0.8443 N   0  0  0  0  0  0  0  0  0  0  0  0
   -1.3605   -0.0581   -0.3816 C   0  0  0  0  0  0  0  0  0  0  0  0
   -2.8284    0.1760   -0.1431 C   0  0  0  0  0  0  0  0  0  0  0  0
   -3.5538   -0.6889    0.6943 C   0  0  0  0  0  0  0  0  0  0  0  0
   -4.9183   -0.4772    0.9149 C   0  0  0  0  0  0  0  0  0  0  0  0
   -5.5690    0.5959    0.3004 C   0  0  0  0  0  0  0  0  0  0  0  0
   -4.8566    1.4585   -0.5370 C   0  0  0  0  0  0  0  0  0  0  0  0
   -3.4918    1.2506   -0.7607 C   0  0  0  0  0  0  0  0  0  0  0  0
    5.9769    0.9622   -1.8681 H   0  0  0  0  0  0  0  0  0  0  0  0
    7.0092   -0.3395   -1.1539 H   0  0  0  0  0  0  0  0  0  0  0  0
    6.4457    1.0330   -0.1200 H   0  0  0  0  0  0  0  0  0  0  0  0
    3.4321    1.1687   -0.2625 H   0  0  0  0  0  0  0  0  0  0  0  0
    1.2765    1.1176    0.5600 H   0  0  0  0  0  0  0  0  0  0  0  0
   -0.7937   -0.5334    1.5541 H   0  0  0  0  0  0  0  0  0  0  0  0
   -0.9961    0.6076   -1.1961 H   0  0  0  0  0  0  0  0  0  0  0  0
   -1.2085   -1.1089   -0.7129 H   0  0  0  0  0  0  0  0  0  0  0  0
   -3.0639   -1.5283    1.1721 H   0  0  0  0  0  0  0  0  0  0  0  0
   -5.4717   -1.1463    1.5611 H   0  0  0  0  0  0  0  0  0  0  0  0
   -6.6253    0.7583    0.4719 H   0  0  0  0  0  0  0  0  0  0  0  0
   -5.3620    2.2887   -1.0132 H   0  0  0  0  0  0  0  0  0  0  0  0
   -2.9545    1.9293   -1.4114 H   0  0  0  0  0  0  0  0  0  0  0  0
  1  2  1  0
  2  3  1  0
  3  4  1  0
  4  5  2  0
  5  6  1  0
  6  2  2  0
  5  7  1  0
  7  8  2  0
  7  9  1  0
  9 10  1  0
 10 11  1  0
 11 12  1  0
 12 13  2  0
 13 14  1  0
 14 15  2  0
 15 16  1  0
 16 17  2  0
 17 12  1  0
  1 18  1  0
  1 19  1  0
  1 20  1  0
  6 21  1  0
  9 22  1  0
 10 23  1  0
 11 24  1  0
 11 25  1  0
 13 26  1  0
 14 27  1  0
 15 28  1  0
 16 29  1  0
 17 30  1  0
M  END
> <ID>
HT1129

> <Class>
0.0

> <Clusters>
164

> <Fold>
4

$$$$