
     RDKit          3D

 38 38  0  0  0  0  0  0  0  0999 V2000
   -1.9412    3.0157    0.0997 C   0  0  0  0  0  0  0  0  0  0  0  0
   -1.4796    2.0272    1.1735 C   0  0  0  0  0  0  0  0  0  0  0  0
   -0.6560    0.8320    0.6242 C   0  0  0  0  0  0  0  0  0  0  0  0
   -1.4632    0.0501   -0.3418 N   0  0  0  0  0  0  0  0  0  0  0  0
   -2.5047   -0.7899    0.2961 C   0  0  0  0  0  0  0  0  0  0  0  0
   -3.8788   -0.3433   -0.2068 C   0  0  0  0  0  0  0  0  0  0  0  0
   -2.2980   -2.2823   -0.0104 C   0  0  0  0  0  0  0  0  0  0  0  0
    0.6834    1.3181   -0.0163 C   0  0  0  0  0  0  0  0  0  0  0  0
    0.4397    1.7696   -1.3267 O   0  0  0  0  0  0  0  0  0  0  0  0
    1.8192    0.2983   -0.0490 C   0  0  0  0  0  0  0  0  0  0  0  0
    3.0989    0.7506   -0.4201 C   0  0  0  0  0  0  0  0  0  0  0  0
    4.1828   -0.1281   -0.4744 C   0  0  0  0  0  0  0  0  0  0  0  0
    4.0123   -1.4800   -0.1577 C   0  0  0  0  0  0  0  0  0  0  0  0
    5.0956   -2.3556   -0.2134 O   0  0  0  0  0  0  0  0  0  0  0  0
    2.7443   -1.9501    0.2171 C   0  0  0  0  0  0  0  0  0  0  0  0
    2.5411   -3.2918    0.5392 O   0  0  0  0  0  0  0  0  0  0  0  0
    1.6595   -1.0671    0.2717 C   0  0  0  0  0  0  0  0  0  0  0  0
   -1.0796    3.5898   -0.2987 H   0  0  0  0  0  0  0  0  0  0  0  0
   -2.6538    3.7394    0.5485 H   0  0  0  0  0  0  0  0  0  0  0  0
   -2.4535    2.4905   -0.7330 H   0  0  0  0  0  0  0  0  0  0  0  0
   -2.3754    1.6469    1.7080 H   0  0  0  0  0  0  0  0  0  0  0  0
   -0.8782    2.5769    1.9300 H   0  0  0  0  0  0  0  0  0  0  0  0
   -0.4030    0.2100    1.5116 H   0  0  0  0  0  0  0  0  0  0  0  0
   -0.8397   -0.5282   -0.9521 H   0  0  0  0  0  0  0  0  0  0  0  0
   -2.5031   -0.6828    1.4044 H   0  0  0  0  0  0  0  0  0  0  0  0
   -3.9391   -0.4432   -1.3118 H   0  0  0  0  0  0  0  0  0  0  0  0
   -4.0592    0.7175    0.0648 H   0  0  0  0  0  0  0  0  0  0  0  0
   -4.6798   -0.9580    0.2569 H   0  0  0  0  0  0  0  0  0  0  0  0
   -2.3135   -2.4641   -1.1066 H   0  0  0  0  0  0  0  0  0  0  0  0
   -3.1003   -2.8870    0.4640 H   0  0  0  0  0  0  0  0  0  0  0  0
   -1.3264   -2.6263    0.3986 H   0  0  0  0  0  0  0  0  0  0  0  0
    1.0528    2.1647    0.6119 H   0  0  0  0  0  0  0  0  0  0  0  0
    1.0614    2.5233   -1.5033 H   0  0  0  0  0  0  0  0  0  0  0  0
    3.2609    1.7929   -0.6656 H   0  0  0  0  0  0  0  0  0  0  0  0
    5.1574    0.2448   -0.7628 H   0  0  0  0  0  0  0  0  0  0  0  0
    6.0204   -2.0394   -0.4811 H   0  0  0  0  0  0  0  0  0  0  0  0
    3.2921   -3.9711    0.5153 H   0  0  0  0  0  0  0  0  0  0  0  0
    0.7044   -1.4701    0.5636 H   0  0  0  0  0  0  0  0  0  0  0  0
  1  2  1  0
  2  3  1  0
  3  4  1  0
  4  5  1  0
  5  6  1  0
  5  7  1  0
  3  8  1  0
  8  9  1  0
  8 10  1  0
 10 11  2  0
 11 12  1  0
 12 13  2  0
 13 14  1  0
 13 15  1  0
 15 16  1  0
 15 17  2  0
 17 10  1  0
  1 18  1  0
  1 19  1  0
  1 20  1  0
  2 21  1  0
  2 22  1  0
  3 23  1  0
  4 24  1  0
  5 25  1  0
  6 26  1  0
  6 27  1  0
  6 28  1  0
  7 29  1  0
  7 30  1  0
  7 31  1  0
  8 32  1  0
  9 33  1  0
 11 34  1  0
 12 35  1  0
 14 36  1  0
 16 37  1  0
 17 38  1  0
M  END
> <ID>
HT1131

> <Class>
0.0

> <Clusters>
138

> <Fold>
4

$$$$