
     RDKit          3D

 29 28  0  0  0  0  0  0  0  0999 V2000
    4.0674    0.5733    0.6930 C   0  0  0  0  0  0  0  0  0  0  0  0
    2.8913    0.4404   -0.1734 N   0  0  0  0  0  0  0  0  0  0  0  0
    1.6434    0.3194    0.6118 C   0  0  0  0  0  0  0  0  0  0  0  0
    1.4020   -1.1597    0.9516 C   0  0  0  0  0  0  0  0  0  0  0  0
    0.4510    0.9043   -0.1897 C   0  0  0  0  0  0  0  0  0  0  0  0
   -0.8810    0.9286    0.5901 C   0  0  0  0  0  0  0  0  0  0  0  0
   -1.7255   -0.2951    0.3215 C   0  0  0  0  0  0  0  0  0  0  0  0
   -2.4983   -0.4635   -0.7746 C   0  0  0  0  0  0  0  0  0  0  0  0
   -2.6252    0.6029   -1.8380 C   0  0  0  0  0  0  0  0  0  0  0  0
   -3.2762   -1.7467   -0.9140 C   0  0  0  0  0  0  0  0  0  0  0  0
    4.1750   -0.3084    1.3574 H   0  0  0  0  0  0  0  0  0  0  0  0
    4.0032    1.4984    1.3074 H   0  0  0  0  0  0  0  0  0  0  0  0
    4.9804    0.6355    0.0638 H   0  0  0  0  0  0  0  0  0  0  0  0
    2.8645    1.3066   -0.7614 H   0  0  0  0  0  0  0  0  0  0  0  0
    1.7247    0.8944    1.5636 H   0  0  0  0  0  0  0  0  0  0  0  0
    2.2989   -1.6111    1.4215 H   0  0  0  0  0  0  0  0  0  0  0  0
    0.5726   -1.2607    1.6803 H   0  0  0  0  0  0  0  0  0  0  0  0
    1.1593   -1.7369    0.0338 H   0  0  0  0  0  0  0  0  0  0  0  0
    0.3448    0.3542   -1.1497 H   0  0  0  0  0  0  0  0  0  0  0  0
    0.6942    1.9577   -0.4506 H   0  0  0  0  0  0  0  0  0  0  0  0
   -1.4555    1.8426    0.3287 H   0  0  0  0  0  0  0  0  0  0  0  0
   -0.6829    0.9979    1.6814 H   0  0  0  0  0  0  0  0  0  0  0  0
   -1.7213   -1.0736    1.0799 H   0  0  0  0  0  0  0  0  0  0  0  0
   -1.6360    0.8273   -2.2849 H   0  0  0  0  0  0  0  0  0  0  0  0
   -3.0510    1.5285   -1.3978 H   0  0  0  0  0  0  0  0  0  0  0  0
   -3.2987    0.2796   -2.6586 H   0  0  0  0  0  0  0  0  0  0  0  0
   -3.9679   -1.8624   -0.0527 H   0  0  0  0  0  0  0  0  0  0  0  0
   -3.8773   -1.7651   -1.8468 H   0  0  0  0  0  0  0  0  0  0  0  0
   -2.5759   -2.6085   -0.9352 H   0  0  0  0  0  0  0  0  0  0  0  0
  1  2  1  0
  2  3  1  0
  3  4  1  0
  3  5  1  0
  5  6  1  0
  6  7  1  0
  7  8  2  3
  8  9  1  0
  8 10  1  0
  1 11  1  0
  1 12  1  0
  1 13  1  0
  2 14  1  0
  3 15  1  0
  4 16  1  0
  4 17  1  0
  4 18  1  0
  5 19  1  0
  5 20  1  0
  6 21  1  0
  6 22  1  0
  7 23  1  0
  9 24  1  0
  9 25  1  0
  9 26  1  0
 10 27  1  0
 10 28  1  0
 10 29  1  0
M  END
> <ID>
HT1134

> <Class>
0.0

> <Clusters>
164

> <Fold>
4

$$$$