
     RDKit          3D

 57 59  0  0  0  0  0  0  0  0999 V2000
    3.2754   -2.1463    1.1853 O   0  0  0  0  0  0  0  0  0  0  0  0
    3.1688   -0.8916    1.0334 C   0  0  0  0  0  0  0  0  0  0  0  0
    2.2890   -0.1646    1.8516 C   0  0  0  0  0  0  0  0  0  0  0  0
    2.2239    1.2343    1.7154 C   0  0  0  0  0  0  0  0  0  0  0  0
    2.9729    1.8826    0.7787 N   0  0  0  0  0  0  0  0  0  0  0  0
    3.7985    1.1996   -0.0700 C   0  0  0  0  0  0  0  0  0  0  0  0
    3.9213   -0.2163    0.0433 C   0  0  0  0  0  0  0  0  0  0  0  0
    1.4640   -0.8474    2.8739 C   0  0  0  0  0  0  0  0  0  0  0  0
    0.1061   -1.2342    2.5882 N   0  0  0  0  0  0  0  0  0  0  0  0
    1.9813   -1.1356    4.0024 O   0  0  0  0  0  0  0  0  0  0  0  0
   -0.6892   -0.5373    1.6231 C   0  0  0  0  0  0  0  0  0  0  0  0
   -1.1786   -1.1385    0.4243 C   0  0  0  0  0  0  0  0  0  0  0  0
   -1.0468    0.7784    1.9384 C   0  0  0  0  0  0  0  0  0  0  0  0
   -1.9061   -0.3018   -0.4662 C   0  0  0  0  0  0  0  0  0  0  0  0
   -0.8735   -2.6030   -0.0243 C   0  0  0  0  0  0  0  0  0  0  0  0
   -1.8195    1.5545    1.0779 C   0  0  0  0  0  0  0  0  0  0  0  0
   -2.2937    1.0187   -0.1458 C   0  0  0  0  0  0  0  0  0  0  0  0
   -0.4766   -3.5511    1.1347 C   0  0  0  0  0  0  0  0  0  0  0  0
   -2.1225   -3.2476   -0.7052 C   0  0  0  0  0  0  0  0  0  0  0  0
    0.2861   -2.5746   -1.0432 C   0  0  0  0  0  0  0  0  0  0  0  0
   -2.0963    2.8679    1.4471 O   0  0  0  0  0  0  0  0  0  0  0  0
   -3.1523    1.8738   -1.1294 C   0  0  0  0  0  0  0  0  0  0  0  0
   -3.7041    1.0535   -2.3260 C   0  0  0  0  0  0  0  0  0  0  0  0
   -2.2785    3.0078   -1.7101 C   0  0  0  0  0  0  0  0  0  0  0  0
   -4.3897    2.4719   -0.4084 C   0  0  0  0  0  0  0  0  0  0  0  0
    4.5408    1.8933   -1.0477 C   0  0  0  0  0  0  0  0  0  0  0  0
    5.3881    1.1944   -1.9113 C   0  0  0  0  0  0  0  0  0  0  0  0
    5.5048   -0.2001   -1.8088 C   0  0  0  0  0  0  0  0  0  0  0  0
    4.7766   -0.9074   -0.8416 C   0  0  0  0  0  0  0  0  0  0  0  0
    1.5778    1.8080    2.3659 H   0  0  0  0  0  0  0  0  0  0  0  0
    2.9020    2.9299    0.7164 H   0  0  0  0  0  0  0  0  0  0  0  0
   -0.4143   -1.7617    3.3305 H   0  0  0  0  0  0  0  0  0  0  0  0
   -0.7082    1.2064    2.8785 H   0  0  0  0  0  0  0  0  0  0  0  0
   -2.1543   -0.6969   -1.4318 H   0  0  0  0  0  0  0  0  0  0  0  0
   -1.2274   -3.4889    1.9630 H   0  0  0  0  0  0  0  0  0  0  0  0
    0.5520   -3.3435    1.5098 H   0  0  0  0  0  0  0  0  0  0  0  0
   -0.4442   -4.6072    0.7854 H   0  0  0  0  0  0  0  0  0  0  0  0
   -2.0027   -4.3453   -0.8313 H   0  0  0  0  0  0  0  0  0  0  0  0
   -2.2871   -2.8565   -1.7268 H   0  0  0  0  0  0  0  0  0  0  0  0
   -3.0422   -3.0804   -0.1025 H   0  0  0  0  0  0  0  0  0  0  0  0
    0.5282   -3.6022   -1.3953 H   0  0  0  0  0  0  0  0  0  0  0  0
    0.0170   -1.9638   -1.9313 H   0  0  0  0  0  0  0  0  0  0  0  0
    1.1935   -2.1288   -0.5800 H   0  0  0  0  0  0  0  0  0  0  0  0
   -1.7630    3.2733    2.3198 H   0  0  0  0  0  0  0  0  0  0  0  0
   -4.3075    0.1864   -1.9614 H   0  0  0  0  0  0  0  0  0  0  0  0
   -4.3678    1.6810   -2.9754 H   0  0  0  0  0  0  0  0  0  0  0  0
   -2.8745    0.6855   -2.9822 H   0  0  0  0  0  0  0  0  0  0  0  0
   -1.4003    2.5800   -2.2410 H   0  0  0  0  0  0  0  0  0  0  0  0
   -2.8652    3.6288   -2.4223 H   0  0  0  0  0  0  0  0  0  0  0  0
   -1.8877    3.6779   -0.9206 H   0  0  0  0  0  0  0  0  0  0  0  0
   -4.1305    3.2763    0.3096 H   0  0  0  0  0  0  0  0  0  0  0  0
   -4.9417    1.6784    0.1421 H   0  0  0  0  0  0  0  0  0  0  0  0
   -5.0924    2.9392   -1.1393 H   0  0  0  0  0  0  0  0  0  0  0  0
    4.4680    2.9775   -1.1421 H   0  0  0  0  0  0  0  0  0  0  0  0
    5.9590    1.7335   -2.6611 H   0  0  0  0  0  0  0  0  0  0  0  0
    6.1618   -0.7289   -2.4853 H   0  0  0  0  0  0  0  0  0  0  0  0
    4.8814   -1.9910   -0.7900 H   0  0  0  0  0  0  0  0  0  0  0  0
  1  2  2  0
  2  3  1  0
  3  4  2  0
  4  5  1  0
  5  6  1  0
  6  7  2  0
  7  2  1  0
  8  3  1  0
  9  8  1  0
  8 10  2  0
 11  9  1  0
 12 11  2  0
 11 13  1  0
 14 12  1  0
 12 15  1  0
 13 16  2  0
 17 14  2  0
 15 18  1  0
 15 19  1  0
 15 20  1  0
 16 17  1  0
 16 21  1  0
 22 17  1  0
 23 22  1  0
 22 24  1  0
 22 25  1  0
  6 26  1  0
 26 27  2  0
 27 28  1  0
 28 29  2  0
 29  7  1  0
  4 30  1  0
  5 31  1  0
  9 32  1  0
 13 33  1  0
 14 34  1  0
 18 35  1  0
 18 36  1  0
 18 37  1  0
 19 38  1  0
 19 39  1  0
 19 40  1  0
 20 41  1  0
 20 42  1  0
 20 43  1  0
 21 44  1  0
 23 45  1  0
 23 46  1  0
 23 47  1  0
 24 48  1  0
 24 49  1  0
 24 50  1  0
 25 51  1  0
 25 52  1  0
 25 53  1  0
 26 54  1  0
 27 55  1  0
 28 56  1  0
 29 57  1  0
M  END
> <ID>
HT1149

> <Class>
0.0

> <Clusters>
203

> <Fold>
4

$$$$