
     RDKit          3D

 43 47  0  0  0  0  0  0  0  0999 V2000
    5.4429    0.7990    0.7283 C   0  0  0  0  0  0  0  0  0  0  0  0
    4.2919    0.0337    0.3880 O   0  0  0  0  0  0  0  0  0  0  0  0
    2.9975    0.5626    0.2913 C   0  0  0  0  0  0  0  0  0  0  0  0
    2.6960    1.9236    0.5435 C   0  0  0  0  0  0  0  0  0  0  0  0
    1.3561    2.3676    0.5399 C   0  0  0  0  0  0  0  0  0  0  0  0
    0.3183    1.4800    0.1996 C   0  0  0  0  0  0  0  0  0  0  0  0
   -1.1268    1.7912    0.5165 C   0  0  0  0  0  0  0  0  0  0  0  0
   -2.0974    0.6884    0.0102 C   0  0  2  0  0  0  0  0  0  0  0  0
   -1.5500   -0.7495    0.3170 C   0  0  2  0  0  0  0  0  0  0  0  0
   -1.2875   -1.0173    1.8069 C   0  0  0  0  0  0  0  0  0  0  0  0
   -0.8516   -2.4682    2.0111 C   0  0  0  0  0  0  0  0  0  0  0  0
    0.2872   -2.8804    1.1075 C   0  0  0  0  0  0  0  0  0  0  0  0
    0.9470   -3.8588    1.4233 O   0  0  0  0  0  0  0  0  0  0  0  0
    0.6262   -2.1783   -0.1940 C   0  0  2  0  0  0  0  0  0  0  0  0
    1.9602   -1.6604   -0.1036 O   0  0  0  0  0  0  0  0  0  0  0  0
    1.9366   -0.2826   -0.0346 C   0  0  0  0  0  0  0  0  0  0  0  0
    0.6697    0.1872   -0.1905 C   0  0  0  0  0  0  0  0  0  0  0  0
   -0.2712   -0.9271   -0.5228 C   0  0  2  0  0  0  0  0  0  0  0  0
   -0.6325   -0.8615   -2.0430 C   0  0  0  0  0  0  0  0  0  0  0  0
   -2.0176   -0.2408   -2.3221 C   0  0  0  0  0  0  0  0  0  0  0  0
   -2.2883    0.9229   -1.4525 N   0  0  0  0  0  0  0  0  0  0  0  0
   -3.6190    1.4796   -1.7422 C   0  0  0  0  0  0  0  0  0  0  0  0
    5.6002    1.6046   -0.0197 H   0  0  0  0  0  0  0  0  0  0  0  0
    6.3320    0.1358    0.7299 H   0  0  0  0  0  0  0  0  0  0  0  0
    5.3236    1.2374    1.7416 H   0  0  0  0  0  0  0  0  0  0  0  0
    3.4744    2.6242    0.8131 H   0  0  0  0  0  0  0  0  0  0  0  0
    1.1269    3.3790    0.8508 H   0  0  0  0  0  0  0  0  0  0  0  0
   -1.4009    2.7738    0.0747 H   0  0  0  0  0  0  0  0  0  0  0  0
   -1.2322    1.8884    1.6185 H   0  0  0  0  0  0  0  0  0  0  0  0
   -3.0585    0.7992    0.5648 H   0  0  0  0  0  0  0  0  0  0  0  0
   -2.3131   -1.4943   -0.0040 H   0  0  0  0  0  0  0  0  0  0  0  0
   -2.2181   -0.8348    2.3867 H   0  0  0  0  0  0  0  0  0  0  0  0
   -0.5000   -0.3459    2.2106 H   0  0  0  0  0  0  0  0  0  0  0  0
   -1.7125   -3.1473    1.8297 H   0  0  0  0  0  0  0  0  0  0  0  0
   -0.5410   -2.5931    3.0713 H   0  0  0  0  0  0  0  0  0  0  0  0
    0.5905   -2.9336   -1.0075 H   0  0  0  0  0  0  0  0  0  0  0  0
   -0.6510   -1.8793   -2.4878 H   0  0  0  0  0  0  0  0  0  0  0  0
    0.1402   -0.2935   -2.6087 H   0  0  0  0  0  0  0  0  0  0  0  0
   -2.8076   -1.0147   -2.1905 H   0  0  0  0  0  0  0  0  0  0  0  0
   -2.0452    0.0751   -3.3883 H   0  0  0  0  0  0  0  0  0  0  0  0
   -3.6970    1.7528   -2.8165 H   0  0  0  0  0  0  0  0  0  0  0  0
   -4.4182    0.7468   -1.4928 H   0  0  0  0  0  0  0  0  0  0  0  0
   -3.7803    2.4084   -1.1537 H   0  0  0  0  0  0  0  0  0  0  0  0
  1  2  1  0
  2  3  1  0
  3  4  2  0
  4  5  1  0
  5  6  2  0
  6  7  1  0
  8  7  1  0
  8  9  1  0
  9 10  1  0
 10 11  1  0
 11 12  1  0
 12 13  2  0
 12 14  1  0
 14 15  1  0
 15 16  1  0
 16  3  1  0
 16 17  2  0
 17  6  1  0
 17 18  1  0
 18  9  1  0
 18 14  1  0
 18 19  1  6
 19 20  1  0
 20 21  1  0
 21  8  1  0
 21 22  1  0
  1 23  1  0
  1 24  1  0
  1 25  1  0
  4 26  1  0
  5 27  1  0
  7 28  1  0
  7 29  1  0
  8 30  1  1
  9 31  1  6
 10 32  1  0
 10 33  1  0
 11 34  1  0
 11 35  1  0
 14 36  1  6
 19 37  1  0
 19 38  1  0
 20 39  1  0
 20 40  1  0
 22 41  1  0
 22 42  1  0
 22 43  1  0
M  END
> <ID>
HT1045

> <Class>
0.0

> <Clusters>
63

> <Fold>
4

$$$$