
     RDKit          3D

 29 29  0  0  0  0  0  0  0  0999 V2000
    4.8227   -0.2824    0.7775 Cl  0  0  0  0  0  0  0  0  0  0  0  0
    3.7790    1.0275    0.1632 C   0  0  0  0  0  0  0  0  0  0  0  0
    2.6397    0.4740   -0.6912 C   0  0  0  0  0  0  0  0  0  0  0  0
    1.6802   -0.2545    0.1440 N   0  0  0  0  0  0  0  0  0  0  0  0
    0.2575   -0.7113   -0.7967 P   0  0  0  0  0  0  0  0  0  0  0  0
    0.4414   -0.4009   -2.2667 O   0  0  0  0  0  0  0  0  0  0  0  0
   -0.0072   -2.3844   -0.6034 O   0  0  0  0  0  0  0  0  0  0  0  0
   -1.3957   -2.6094   -0.6955 C   0  0  0  0  0  0  0  0  0  0  0  0
   -2.1610   -2.0430    0.5180 C   0  0  0  0  0  0  0  0  0  0  0  0
   -1.6690   -0.6493    0.9587 C   0  0  0  0  0  0  0  0  0  0  0  0
   -1.1731    0.1307   -0.1891 N   0  0  0  0  0  0  0  0  0  0  0  0
   -0.8165    1.5094    0.1963 C   0  0  0  0  0  0  0  0  0  0  0  0
   -2.0591    2.3998    0.2379 C   0  0  0  0  0  0  0  0  0  0  0  0
   -1.5882    4.0952    0.5194 Cl  0  0  0  0  0  0  0  0  0  0  0  0
    4.4027    1.7090   -0.4530 H   0  0  0  0  0  0  0  0  0  0  0  0
    3.3683    1.6039    1.0194 H   0  0  0  0  0  0  0  0  0  0  0  0
    2.1383    1.3374   -1.1804 H   0  0  0  0  0  0  0  0  0  0  0  0
    3.0545   -0.1909   -1.4822 H   0  0  0  0  0  0  0  0  0  0  0  0
    2.1280   -1.1465    0.4554 H   0  0  0  0  0  0  0  0  0  0  0  0
   -1.8093   -2.1980   -1.6460 H   0  0  0  0  0  0  0  0  0  0  0  0
   -1.5687   -3.7055   -0.7367 H   0  0  0  0  0  0  0  0  0  0  0  0
   -3.2397   -1.9861    0.2547 H   0  0  0  0  0  0  0  0  0  0  0  0
   -2.0632   -2.7444    1.3750 H   0  0  0  0  0  0  0  0  0  0  0  0
   -2.5190   -0.1294    1.4480 H   0  0  0  0  0  0  0  0  0  0  0  0
   -0.8706   -0.7656    1.7283 H   0  0  0  0  0  0  0  0  0  0  0  0
   -0.1339    1.9512   -0.5631 H   0  0  0  0  0  0  0  0  0  0  0  0
   -0.2951    1.5351    1.1803 H   0  0  0  0  0  0  0  0  0  0  0  0
   -2.6025    2.3362   -0.7288 H   0  0  0  0  0  0  0  0  0  0  0  0
   -2.7405    2.0922    1.0566 H   0  0  0  0  0  0  0  0  0  0  0  0
  1  2  1  0
  2  3  1  0
  3  4  1  0
  4  5  1  0
  5  6  2  0
  5  7  1  0
  7  8  1  0
  8  9  1  0
  9 10  1  0
 10 11  1  0
 11  5  1  0
 11 12  1  0
 12 13  1  0
 13 14  1  0
  2 15  1  0
  2 16  1  0
  3 17  1  0
  3 18  1  0
  4 19  1  0
  8 20  1  0
  8 21  1  0
  9 22  1  0
  9 23  1  0
 10 24  1  0
 10 25  1  0
 12 26  1  0
 12 27  1  0
 13 28  1  0
 13 29  1  0
M  END
> <ID>
HT1077

> <Class>
0.0

> <Clusters>
65

> <Fold>
4

$$$$