
     RDKit          3D

 26 25  0  0  0  0  0  0  0  0999 V2000
   -3.1959   -1.0778    0.7502 N   0  0  0  0  0  0  0  0  0  0  0  0
   -2.4524    0.1787    0.6084 C   0  0  1  0  0  0  0  0  0  0  0  0
   -1.0797   -0.0362   -0.0705 C   0  0  0  0  0  0  0  0  0  0  0  0
   -0.1425   -0.9245    0.7648 C   0  0  0  0  0  0  0  0  0  0  0  0
    1.2520   -1.0262    0.1419 C   0  0  0  0  0  0  0  0  0  0  0  0
    1.9320    0.2650    0.2121 N   0  0  0  0  0  0  0  0  0  0  0  0
    3.1332    0.5079   -0.2261 C   0  0  0  0  0  0  0  0  0  0  0  0
    3.6668    1.8247   -0.0891 N   0  0  0  0  0  0  0  0  0  0  0  0
    3.9308   -0.5121   -0.8417 N   0  0  0  0  0  0  0  0  0  0  0  0
   -3.2698    1.1682   -0.1776 C   0  0  0  0  0  0  0  0  0  0  0  0
   -2.8765    2.3611   -0.2845 O   0  0  0  0  0  0  0  0  0  0  0  0
   -4.4642    0.7814   -0.7809 O   0  0  0  0  0  0  0  0  0  0  0  0
   -3.1292   -1.6334   -0.1340 H   0  0  0  0  0  0  0  0  0  0  0  0
   -2.7720   -1.6440    1.5201 H   0  0  0  0  0  0  0  0  0  0  0  0
   -2.2919    0.6127    1.6209 H   0  0  0  0  0  0  0  0  0  0  0  0
   -0.5955    0.9549   -0.2139 H   0  0  0  0  0  0  0  0  0  0  0  0
   -1.2233   -0.4901   -1.0761 H   0  0  0  0  0  0  0  0  0  0  0  0
   -0.5640   -1.9503    0.8283 H   0  0  0  0  0  0  0  0  0  0  0  0
   -0.0544   -0.5203    1.7972 H   0  0  0  0  0  0  0  0  0  0  0  0
    1.1659   -1.3548   -0.9172 H   0  0  0  0  0  0  0  0  0  0  0  0
    1.8388   -1.7827    0.7073 H   0  0  0  0  0  0  0  0  0  0  0  0
    4.6276    2.0464   -0.4321 H   0  0  0  0  0  0  0  0  0  0  0  0
    3.1022    2.5826    0.3555 H   0  0  0  0  0  0  0  0  0  0  0  0
    4.8905   -0.2854   -1.1843 H   0  0  0  0  0  0  0  0  0  0  0  0
    3.5905   -1.4906   -0.9649 H   0  0  0  0  0  0  0  0  0  0  0  0
   -5.0188    1.4449   -1.3084 H   0  0  0  0  0  0  0  0  0  0  0  0
  2  1  1  0
  2  3  1  0
  3  4  1  0
  4  5  1  0
  5  6  1  0
  6  7  2  3
  7  8  1  0
  7  9  1  0
  2 10  1  0
 10 11  2  0
 10 12  1  0
  1 13  1  0
  1 14  1  0
  2 15  1  1
  3 16  1  0
  3 17  1  0
  4 18  1  0
  4 19  1  0
  5 20  1  0
  5 21  1  0
  8 22  1  0
  8 23  1  0
  9 24  1  0
  9 25  1  0
 12 26  1  0
M  END
> <ID>
HT1172

> <Class>
0.0

> <Clusters>
148

> <Fold>
4

$$$$