
     RDKit          3D

 56 56  0  0  0  0  0  0  0  0999 V2000
   -4.3097   -2.5339    2.8537 C   0  0  0  0  0  0  0  0  0  0  0  0
   -3.2887   -1.4910    2.4986 C   0  0  0  0  0  0  0  0  0  0  0  0
   -2.8822   -0.7380    3.4255 O   0  0  0  0  0  0  0  0  0  0  0  0
   -2.7579   -1.3209    1.1620 N   0  0  0  0  0  0  0  0  0  0  0  0
   -3.3782   -1.9249   -0.0319 C   0  0  0  0  0  0  0  0  0  0  0  0
   -2.6553   -3.2147   -0.4556 C   0  0  0  0  0  0  0  0  0  0  0  0
   -2.7349   -4.1716    0.5677 O   0  0  0  0  0  0  0  0  0  0  0  0
   -3.2526   -3.7814   -1.7551 C   0  0  0  0  0  0  0  0  0  0  0  0
   -4.6011   -4.1287   -1.5839 O   0  0  0  0  0  0  0  0  0  0  0  0
   -1.6602   -0.4075    0.9686 C   0  0  0  0  0  0  0  0  0  0  0  0
   -1.9074    0.8964    0.4960 C   0  0  0  0  0  0  0  0  0  0  0  0
   -3.9184    1.5719    0.2283 I   0  0  0  0  0  0  0  0  0  0  0  0
   -0.8338    1.7734    0.2565 C   0  0  0  0  0  0  0  0  0  0  0  0
   -1.0945    3.1299   -0.2470 C   0  0  0  0  0  0  0  0  0  0  0  0
   -1.1825    3.3230   -1.4897 O   0  0  0  0  0  0  0  0  0  0  0  0
   -1.2513    4.2171    0.6744 N   0  0  0  0  0  0  0  0  0  0  0  0
   -1.4569    5.5955    0.2361 C   0  0  0  0  0  0  0  0  0  0  0  0
   -0.1496    6.1943   -0.2759 C   0  0  0  0  0  0  0  0  0  0  0  0
   -0.3611    7.5268   -0.6504 O   0  0  0  0  0  0  0  0  0  0  0  0
    0.4870    1.3625    0.5146 C   0  0  0  0  0  0  0  0  0  0  0  0
    2.1071    2.7243    0.1847 I   0  0  0  0  0  0  0  0  0  0  0  0
    0.7321    0.0747    1.0317 C   0  0  0  0  0  0  0  0  0  0  0  0
    2.1136   -0.3522    1.3150 C   0  0  0  0  0  0  0  0  0  0  0  0
    2.4799   -0.5217    2.5095 O   0  0  0  0  0  0  0  0  0  0  0  0
    3.0302   -0.5763    0.2371 N   0  0  0  0  0  0  0  0  0  0  0  0
    4.4232   -0.9471    0.4845 C   0  0  0  0  0  0  0  0  0  0  0  0
    5.2040   -1.0813   -0.8353 C   0  0  0  0  0  0  0  0  0  0  0  0
    5.1839    0.1298   -1.5507 O   0  0  0  0  0  0  0  0  0  0  0  0
    6.6500   -1.5368   -0.5784 C   0  0  0  0  0  0  0  0  0  0  0  0
    7.3217   -1.7391   -1.7924 O   0  0  0  0  0  0  0  0  0  0  0  0
   -0.3422   -0.8067    1.2694 C   0  0  0  0  0  0  0  0  0  0  0  0
    0.0257   -2.7521    2.0747 I   0  0  0  0  0  0  0  0  0  0  0  0
   -3.9186   -3.1563    3.6857 H   0  0  0  0  0  0  0  0  0  0  0  0
   -4.5585   -3.2134    2.0195 H   0  0  0  0  0  0  0  0  0  0  0  0
   -5.2416   -2.0340    3.1909 H   0  0  0  0  0  0  0  0  0  0  0  0
   -4.4610   -2.1035    0.1301 H   0  0  0  0  0  0  0  0  0  0  0  0
   -3.3219   -1.2073   -0.8793 H   0  0  0  0  0  0  0  0  0  0  0  0
   -1.5878   -2.9613   -0.6512 H   0  0  0  0  0  0  0  0  0  0  0  0
   -2.0543   -4.8658    0.3649 H   0  0  0  0  0  0  0  0  0  0  0  0
   -2.6636   -4.6664   -2.0879 H   0  0  0  0  0  0  0  0  0  0  0  0
   -3.1798   -3.0199   -2.5607 H   0  0  0  0  0  0  0  0  0  0  0  0
   -4.6135   -5.0076   -1.1227 H   0  0  0  0  0  0  0  0  0  0  0  0
   -1.2607    4.0118    1.6990 H   0  0  0  0  0  0  0  0  0  0  0  0
   -2.2345    5.6289   -0.5579 H   0  0  0  0  0  0  0  0  0  0  0  0
   -1.8183    6.2008    1.0956 H   0  0  0  0  0  0  0  0  0  0  0  0
    0.6163    6.1467    0.5309 H   0  0  0  0  0  0  0  0  0  0  0  0
    0.2137    5.6146   -1.1530 H   0  0  0  0  0  0  0  0  0  0  0  0
    0.5229    7.8753   -0.9368 H   0  0  0  0  0  0  0  0  0  0  0  0
    2.6821   -0.4689   -0.7432 H   0  0  0  0  0  0  0  0  0  0  0  0
    4.9005   -0.1735    1.1250 H   0  0  0  0  0  0  0  0  0  0  0  0
    4.4461   -1.9164    1.0288 H   0  0  0  0  0  0  0  0  0  0  0  0
    4.7053   -1.8581   -1.4556 H   0  0  0  0  0  0  0  0  0  0  0  0
    5.6266    0.8183   -0.9882 H   0  0  0  0  0  0  0  0  0  0  0  0
    6.6395   -2.4990   -0.0233 H   0  0  0  0  0  0  0  0  0  0  0  0
    7.1910   -0.7916    0.0495 H   0  0  0  0  0  0  0  0  0  0  0  0
    7.6299   -0.8469   -2.1004 H   0  0  0  0  0  0  0  0  0  0  0  0
  1  2  1  0
  2  3  2  0
  2  4  1  0
  4  5  1  0
  5  6  1  0
  6  7  1  0
  6  8  1  0
  8  9  1  0
  4 10  1  0
 10 11  2  0
 11 12  1  0
 11 13  1  0
 13 14  1  0
 14 15  2  0
 14 16  1  0
 16 17  1  0
 17 18  1  0
 18 19  1  0
 13 20  2  0
 20 21  1  0
 20 22  1  0
 22 23  1  0
 23 24  2  0
 23 25  1  0
 25 26  1  0
 26 27  1  0
 27 28  1  0
 27 29  1  0
 29 30  1  0
 22 31  2  0
 31 10  1  0
 31 32  1  0
  1 33  1  0
  1 34  1  0
  1 35  1  0
  5 36  1  0
  5 37  1  0
  6 38  1  0
  7 39  1  0
  8 40  1  0
  8 41  1  0
  9 42  1  0
 16 43  1  0
 17 44  1  0
 17 45  1  0
 18 46  1  0
 18 47  1  0
 19 48  1  0
 25 49  1  0
 26 50  1  0
 26 51  1  0
 27 52  1  0
 28 53  1  0
 29 54  1  0
 29 55  1  0
 30 56  1  0
M  END
> <ID>
HT1118

> <Class>
0.0

> <Clusters>
134

> <Fold>
4

$$$$