
     RDKit          3D

 29 32  0  0  0  0  0  0  0  0999 V2000
    4.7960    0.0643   -0.2397 F   0  0  0  0  0  0  0  0  0  0  0  0
    3.5047   -0.3423   -0.1689 C   0  0  0  0  0  0  0  0  0  0  0  0
    3.2033   -1.7191   -0.1433 C   0  0  0  0  0  0  0  0  0  0  0  0
    1.8698   -2.1539   -0.0722 C   0  0  0  0  0  0  0  0  0  0  0  0
    0.8629   -1.1894   -0.0259 C   0  0  0  0  0  0  0  0  0  0  0  0
   -0.5779   -1.3507    0.0406 C   0  0  0  0  0  0  0  0  0  0  0  0
   -1.3471   -2.5140    0.0762 C   0  0  0  0  0  0  0  0  0  0  0  0
   -2.7445   -2.3849    0.1310 C   0  0  0  0  0  0  0  0  0  0  0  0
   -3.3432   -1.1088    0.1470 C   0  0  0  0  0  0  0  0  0  0  0  0
   -4.6934   -0.9979    0.1980 F   0  0  0  0  0  0  0  0  0  0  0  0
   -2.5482    0.0493    0.1091 C   0  0  0  0  0  0  0  0  0  0  0  0
   -1.1596   -0.0950    0.0586 C   0  0  0  0  0  0  0  0  0  0  0  0
   -0.1095    0.9805    0.0054 C   0  0  0  0  0  0  0  0  0  0  0  0
   -0.2599    1.8424   -1.1635 N   0  0  0  0  0  0  0  0  0  0  0  0
   -0.3875    3.1775   -0.6899 C   0  0  0  0  0  0  0  0  0  0  0  0
   -0.5337    4.1701   -1.4498 O   0  0  0  0  0  0  0  0  0  0  0  0
   -0.3338    3.2793    0.7222 N   0  0  0  0  0  0  0  0  0  0  0  0
   -0.1636    1.9389    1.1588 C   0  0  0  0  0  0  0  0  0  0  0  0
   -0.0714    1.6154    2.3727 O   0  0  0  0  0  0  0  0  0  0  0  0
    1.1524    0.1638   -0.0481 C   0  0  0  0  0  0  0  0  0  0  0  0
    2.4736    0.6114   -0.1225 C   0  0  0  0  0  0  0  0  0  0  0  0
    4.0035   -2.4469   -0.1803 H   0  0  0  0  0  0  0  0  0  0  0  0
    1.6340   -3.2098   -0.0553 H   0  0  0  0  0  0  0  0  0  0  0  0
   -0.8837   -3.4916    0.0608 H   0  0  0  0  0  0  0  0  0  0  0  0
   -3.3643   -3.2716    0.1596 H   0  0  0  0  0  0  0  0  0  0  0  0
   -3.0015    1.0321    0.1192 H   0  0  0  0  0  0  0  0  0  0  0  0
   -0.2721    1.5394   -2.1631 H   0  0  0  0  0  0  0  0  0  0  0  0
   -0.4033    4.1412    1.3071 H   0  0  0  0  0  0  0  0  0  0  0  0
    2.6979    1.6701   -0.1437 H   0  0  0  0  0  0  0  0  0  0  0  0
  1  2  1  0
  2  3  2  0
  3  4  1  0
  4  5  2  0
  5  6  1  0
  6  7  2  0
  7  8  1  0
  8  9  2  0
  9 10  1  0
  9 11  1  0
 11 12  2  0
 12  6  1  0
 12 13  1  0
 13 14  1  0
 14 15  1  0
 15 16  2  0
 15 17  1  0
 17 18  1  0
 18 13  1  0
 18 19  2  0
 13 20  1  0
 20  5  1  0
 20 21  2  0
 21  2  1  0
  3 22  1  0
  4 23  1  0
  7 24  1  0
  8 25  1  0
 11 26  1  0
 14 27  1  0
 17 28  1  0
 21 29  1  0
M  END
> <ID>
HT1085

> <Class>
0.0

> <Clusters>
217

> <Fold>
4

$$$$