
     RDKit          3D

 34 35  0  0  0  0  0  0  0  0999 V2000
   -4.0159   -0.1650   -0.4786 C   0  0  0  0  0  0  0  0  0  0  0  0
   -2.9064   -0.6946    0.3149 N   0  0  0  0  0  0  0  0  0  0  0  0
   -3.1640   -1.7548    1.2892 C   0  0  0  0  0  0  0  0  0  0  0  0
   -1.5689   -0.1944    0.1381 C   0  0  0  0  0  0  0  0  0  0  0  0
   -1.1534    1.1309    0.0829 C   0  0  0  0  0  0  0  0  0  0  0  0
   -2.0215    2.3473    0.2179 C   0  0  0  0  0  0  0  0  0  0  0  0
    0.1910    1.1517   -0.1019 N   0  0  0  0  0  0  0  0  0  0  0  0
    1.0175    2.3525   -0.2507 C   0  0  0  0  0  0  0  0  0  0  0  0
    0.6430   -0.1013   -0.1179 N   0  0  0  0  0  0  0  0  0  0  0  0
   -0.4093   -0.9329    0.0213 C   0  0  0  0  0  0  0  0  0  0  0  0
   -0.3265   -2.1902    0.0417 O   0  0  0  0  0  0  0  0  0  0  0  0
    2.0196   -0.5015   -0.2405 C   0  0  0  0  0  0  0  0  0  0  0  0
    2.4026   -1.4224   -1.2290 C   0  0  0  0  0  0  0  0  0  0  0  0
    3.7384   -1.8206   -1.3412 C   0  0  0  0  0  0  0  0  0  0  0  0
    4.6979   -1.3080   -0.4636 C   0  0  0  0  0  0  0  0  0  0  0  0
    4.3222   -0.3990    0.5295 C   0  0  0  0  0  0  0  0  0  0  0  0
    2.9874    0.0013    0.6441 C   0  0  0  0  0  0  0  0  0  0  0  0
   -4.5246   -0.9970   -1.0098 H   0  0  0  0  0  0  0  0  0  0  0  0
   -4.7453    0.3419    0.1875 H   0  0  0  0  0  0  0  0  0  0  0  0
   -3.6569    0.5569   -1.2420 H   0  0  0  0  0  0  0  0  0  0  0  0
   -2.7542   -1.4628    2.2792 H   0  0  0  0  0  0  0  0  0  0  0  0
   -4.2550   -1.9338    1.4016 H   0  0  0  0  0  0  0  0  0  0  0  0
   -2.6901   -2.7010    0.9569 H   0  0  0  0  0  0  0  0  0  0  0  0
   -2.3034    2.7168   -0.7896 H   0  0  0  0  0  0  0  0  0  0  0  0
   -1.4790    3.1469    0.7635 H   0  0  0  0  0  0  0  0  0  0  0  0
   -2.9383    2.1097    0.7957 H   0  0  0  0  0  0  0  0  0  0  0  0
    1.3269    2.7191    0.7499 H   0  0  0  0  0  0  0  0  0  0  0  0
    0.4505    3.1509   -0.7738 H   0  0  0  0  0  0  0  0  0  0  0  0
    1.9172    2.1346   -0.8626 H   0  0  0  0  0  0  0  0  0  0  0  0
    1.6681   -1.8211   -1.9173 H   0  0  0  0  0  0  0  0  0  0  0  0
    4.0297   -2.5262   -2.1085 H   0  0  0  0  0  0  0  0  0  0  0  0
    5.7313   -1.6175   -0.5509 H   0  0  0  0  0  0  0  0  0  0  0  0
    5.0645   -0.0082    1.2133 H   0  0  0  0  0  0  0  0  0  0  0  0
    2.7048    0.6916    1.4284 H   0  0  0  0  0  0  0  0  0  0  0  0
  1  2  1  0
  2  3  1  0
  2  4  1  0
  4  5  2  0
  5  6  1  0
  5  7  1  0
  7  8  1  0
  7  9  1  0
  9 10  1  0
 10  4  1  0
 10 11  2  0
  9 12  1  0
 12 13  2  0
 13 14  1  0
 14 15  2  0
 15 16  1  0
 16 17  2  0
 17 12  1  0
  1 18  1  0
  1 19  1  0
  1 20  1  0
  3 21  1  0
  3 22  1  0
  3 23  1  0
  6 24  1  0
  6 25  1  0
  6 26  1  0
  8 27  1  0
  8 28  1  0
  8 29  1  0
 13 30  1  0
 14 31  1  0
 15 32  1  0
 16 33  1  0
 17 34  1  0
M  END
> <ID>
HT0138

> <Class>
0.0

> <Clusters>
16

> <Fold>
4

$$$$