
     RDKit          3D

 70 72  0  0  0  0  0  0  0  0999 V2000
    5.8861   -0.7947   -1.9711 C   0  0  0  0  0  0  0  0  0  0  0  0
    5.6429   -2.0390   -1.1217 C   0  0  0  0  0  0  0  0  0  0  0  0
    4.9582   -1.6891    0.1342 N   0  0  0  0  0  0  0  0  0  0  0  0
    5.6412   -1.9307    1.4132 C   0  0  0  0  0  0  0  0  0  0  0  0
    6.7869   -0.9430    1.6199 C   0  0  0  0  0  0  0  0  0  0  0  0
    3.6343   -1.1072    0.1133 C   0  0  0  0  0  0  0  0  0  0  0  0
    2.6390   -1.6160   -0.7402 C   0  0  0  0  0  0  0  0  0  0  0  0
    1.3708   -1.0314   -0.7805 C   0  0  0  0  0  0  0  0  0  0  0  0
    1.0669    0.0679    0.0388 C   0  0  0  0  0  0  0  0  0  0  0  0
    2.0583    0.5784    0.8901 C   0  0  0  0  0  0  0  0  0  0  0  0
    3.3260   -0.0069    0.9322 C   0  0  0  0  0  0  0  0  0  0  0  0
   -0.2575    0.7365   -0.0458 C   0  0  0  0  0  0  0  0  0  0  0  0
   -1.4273    0.0699    0.1560 C   0  0  0  0  0  0  0  0  0  0  0  0
   -2.7383    0.7363   -0.0564 C   0  0  0  0  0  0  0  0  0  0  0  0
   -3.8912    0.0939    0.1441 C   0  0  0  0  0  0  0  0  0  0  0  0
   -3.9325   -1.3310    0.5983 C   0  0  0  0  0  0  0  0  0  0  0  0
   -5.0795   -1.9696    0.8112 N   0  0  0  0  0  0  0  0  0  0  0  0
   -5.1176   -3.3766    1.2735 C   0  0  0  0  0  0  0  0  0  0  0  0
   -4.8618   -4.3445    0.1180 C   0  0  0  0  0  0  0  0  0  0  0  0
   -6.3911   -1.3050    0.6294 C   0  0  0  0  0  0  0  0  0  0  0  0
   -6.7874   -1.2602   -0.8463 C   0  0  0  0  0  0  0  0  0  0  0  0
   -2.6062   -1.9882    0.8188 C   0  0  0  0  0  0  0  0  0  0  0  0
   -1.4558   -1.3407    0.6191 C   0  0  0  0  0  0  0  0  0  0  0  0
   -0.2462    2.2015   -0.2893 C   0  0  0  0  0  0  0  0  0  0  0  0
   -0.5139    3.0570    0.7923 C   0  0  0  0  0  0  0  0  0  0  0  0
   -0.4914    4.4458    0.6270 C   0  0  0  0  0  0  0  0  0  0  0  0
   -0.1831    4.9880   -0.6239 C   0  0  0  0  0  0  0  0  0  0  0  0
    0.0845    4.1494   -1.7071 C   0  0  0  0  0  0  0  0  0  0  0  0
    0.0491    2.7541   -1.5587 C   0  0  0  0  0  0  0  0  0  0  0  0
    0.3773    1.7400   -2.9718 S   0  0  0  0  0  0  0  0  0  0  0  0
    0.2170    2.5415   -4.2334 O   0  0  0  0  0  0  0  0  0  0  0  0
   -0.5941    0.5947   -3.0152 O   0  0  0  0  0  0  0  0  0  0  0  0
    1.9483    1.1461   -2.8953 O   0  0  0  0  0  0  0  0  0  0  0  0
   -0.8048    5.5045    1.9982 S   0  0  0  0  0  0  0  0  0  0  0  0
   -1.7403    4.8331    2.9648 O   0  0  0  0  0  0  0  0  0  0  0  0
   -1.4443    6.7773    1.5179 O   0  0  0  0  0  0  0  0  0  0  0  0
    0.6417    5.8662    2.7726 O   0  0  0  0  0  0  0  0  0  0  0  0
    4.9207   -0.3392   -2.2783 H   0  0  0  0  0  0  0  0  0  0  0  0
    6.4505   -1.0720   -2.8856 H   0  0  0  0  0  0  0  0  0  0  0  0
    6.4758   -0.0495   -1.3967 H   0  0  0  0  0  0  0  0  0  0  0  0
    6.6230   -2.5195   -0.9127 H   0  0  0  0  0  0  0  0  0  0  0  0
    5.0464   -2.7762   -1.6962 H   0  0  0  0  0  0  0  0  0  0  0  0
    4.9275   -1.8457    2.2619 H   0  0  0  0  0  0  0  0  0  0  0  0
    6.0410   -2.9676    1.4306 H   0  0  0  0  0  0  0  0  0  0  0  0
    6.4192    0.1017    1.5592 H   0  0  0  0  0  0  0  0  0  0  0  0
    7.5727   -1.0929    0.8497 H   0  0  0  0  0  0  0  0  0  0  0  0
    7.2427   -1.1039    2.6186 H   0  0  0  0  0  0  0  0  0  0  0  0
    2.8336   -2.4705   -1.3724 H   0  0  0  0  0  0  0  0  0  0  0  0
    0.6284   -1.4291   -1.4611 H   0  0  0  0  0  0  0  0  0  0  0  0
    1.8508    1.4321    1.5235 H   0  0  0  0  0  0  0  0  0  0  0  0
    4.0718    0.4154    1.5914 H   0  0  0  0  0  0  0  0  0  0  0  0
   -2.7867    1.7600   -0.4062 H   0  0  0  0  0  0  0  0  0  0  0  0
   -4.7925    0.6545   -0.0517 H   0  0  0  0  0  0  0  0  0  0  0  0
   -4.4053   -3.5440    2.1081 H   0  0  0  0  0  0  0  0  0  0  0  0
   -6.1071   -3.6358    1.7068 H   0  0  0  0  0  0  0  0  0  0  0  0
   -5.7068   -4.3072   -0.5996 H   0  0  0  0  0  0  0  0  0  0  0  0
   -3.9281   -4.0939   -0.4243 H   0  0  0  0  0  0  0  0  0  0  0  0
   -4.7793   -5.3786    0.5108 H   0  0  0  0  0  0  0  0  0  0  0  0
   -6.3931   -0.2910    1.0798 H   0  0  0  0  0  0  0  0  0  0  0  0
   -7.1969   -1.8445    1.1717 H   0  0  0  0  0  0  0  0  0  0  0  0
   -7.7267   -0.6799   -0.9616 H   0  0  0  0  0  0  0  0  0  0  0  0
   -6.9611   -2.2898   -1.2217 H   0  0  0  0  0  0  0  0  0  0  0  0
   -5.9979   -0.7864   -1.4638 H   0  0  0  0  0  0  0  0  0  0  0  0
   -2.5280   -3.0103    1.1574 H   0  0  0  0  0  0  0  0  0  0  0  0
   -0.5390   -1.8706    0.8392 H   0  0  0  0  0  0  0  0  0  0  0  0
   -0.7299    2.6362    1.7673 H   0  0  0  0  0  0  0  0  0  0  0  0
   -0.1440    6.0614   -0.7608 H   0  0  0  0  0  0  0  0  0  0  0  0
    0.3229    4.5946   -2.6646 H   0  0  0  0  0  0  0  0  0  0  0  0
    2.5186    1.9467   -2.7860 H   0  0  0  0  0  0  0  0  0  0  0  0
    1.0125    4.9875    3.0416 H   0  0  0  0  0  0  0  0  0  0  0  0
  1  2  1  0
  2  3  1  0
  3  4  1  0
  4  5  1  0
  3  6  1  0
  6  7  2  0
  7  8  1  0
  8  9  2  0
  9 10  1  0
 10 11  2  0
 11  6  1  0
  9 12  1  0
 12 13  2  3
 13 14  1  0
 14 15  2  0
 15 16  1  0
 16 17  2  3
 17 18  1  0
 18 19  1  0
 17 20  1  0
 20 21  1  0
 16 22  1  0
 22 23  2  0
 23 13  1  0
 12 24  1  0
 24 25  2  0
 25 26  1  0
 26 27  2  0
 27 28  1  0
 28 29  2  0
 29 24  1  0
 29 30  1  0
 30 31  2  0
 30 32  2  0
 30 33  1  0
 26 34  1  0
 34 35  2  0
 34 36  2  0
 34 37  1  0
  1 38  1  0
  1 39  1  0
  1 40  1  0
  2 41  1  0
  2 42  1  0
  4 43  1  0
  4 44  1  0
  5 45  1  0
  5 46  1  0
  5 47  1  0
  7 48  1  0
  8 49  1  0
 10 50  1  0
 11 51  1  0
 14 52  1  0
 15 53  1  0
 18 54  1  0
 18 55  1  0
 19 56  1  0
 19 57  1  0
 19 58  1  0
 20 59  1  0
 20 60  1  0
 21 61  1  0
 21 62  1  0
 21 63  1  0
 22 64  1  0
 23 65  1  0
 25 66  1  0
 27 67  1  0
 28 68  1  0
 33 69  1  0
 37 70  1  0
M  CHG  1  17   1
M  END
> <ID>
HT1141

> <Class>
0.0

> <Clusters>
275

> <Fold>
4

$$$$