
     RDKit          3D

 32 32  0  0  0  0  0  0  0  0999 V2000
   -3.3989    0.5992    0.6154 C   0  0  0  0  0  0  0  0  0  0  0  0
   -2.9996   -0.2837   -0.5769 C   0  0  0  0  0  0  0  0  0  0  0  0
   -2.7594   -1.7408   -0.1587 C   0  0  0  0  0  0  0  0  0  0  0  0
   -1.8555    0.2609   -1.3366 N   0  0  0  0  0  0  0  0  0  0  0  0
   -0.5976    0.4364   -0.5747 C   0  0  0  0  0  0  0  0  0  0  0  0
   -0.2950    1.9281   -0.3393 C   0  0  0  0  0  0  0  0  0  0  0  0
    0.5412   -0.2401   -1.3604 C   0  0  0  0  0  0  0  0  0  0  0  0
    1.8322   -0.2863   -0.5799 C   0  0  0  0  0  0  0  0  0  0  0  0
    1.9501   -1.1200    0.5453 C   0  0  0  0  0  0  0  0  0  0  0  0
    3.1457   -1.1637    1.2686 C   0  0  0  0  0  0  0  0  0  0  0  0
    4.2338   -0.3797    0.8730 C   0  0  0  0  0  0  0  0  0  0  0  0
    6.0358   -0.4465    1.9665 I   0  0  0  0  0  0  0  0  0  0  0  0
    4.1264    0.4472   -0.2494 C   0  0  0  0  0  0  0  0  0  0  0  0
    2.9324    0.4932   -0.9756 C   0  0  0  0  0  0  0  0  0  0  0  0
   -3.5569    1.6450    0.2774 H   0  0  0  0  0  0  0  0  0  0  0  0
   -4.3510    0.2305    1.0529 H   0  0  0  0  0  0  0  0  0  0  0  0
   -2.6264    0.5874    1.4116 H   0  0  0  0  0  0  0  0  0  0  0  0
   -3.8728   -0.2998   -1.2672 H   0  0  0  0  0  0  0  0  0  0  0  0
   -3.7079   -2.1875    0.2086 H   0  0  0  0  0  0  0  0  0  0  0  0
   -2.0066   -1.8197    0.6521 H   0  0  0  0  0  0  0  0  0  0  0  0
   -2.4110   -2.3322   -1.0319 H   0  0  0  0  0  0  0  0  0  0  0  0
   -2.1469    1.1484   -1.8112 H   0  0  0  0  0  0  0  0  0  0  0  0
   -0.6577   -0.0475    0.4218 H   0  0  0  0  0  0  0  0  0  0  0  0
   -1.1431    2.4131    0.1866 H   0  0  0  0  0  0  0  0  0  0  0  0
    0.6095    2.0457    0.2941 H   0  0  0  0  0  0  0  0  0  0  0  0
   -0.1274    2.4519   -1.3047 H   0  0  0  0  0  0  0  0  0  0  0  0
    0.2463   -1.2828   -1.6107 H   0  0  0  0  0  0  0  0  0  0  0  0
    0.6852    0.2915   -2.3272 H   0  0  0  0  0  0  0  0  0  0  0  0
    1.1175   -1.7371    0.8596 H   0  0  0  0  0  0  0  0  0  0  0  0
    3.2261   -1.8074    2.1349 H   0  0  0  0  0  0  0  0  0  0  0  0
    4.9670    1.0546   -0.5591 H   0  0  0  0  0  0  0  0  0  0  0  0
    2.8644    1.1416   -1.8402 H   0  0  0  0  0  0  0  0  0  0  0  0
  1  2  1  0
  2  3  1  0
  2  4  1  0
  4  5  1  0
  5  6  1  0
  5  7  1  0
  7  8  1  0
  8  9  2  0
  9 10  1  0
 10 11  2  0
 11 12  1  0
 11 13  1  0
 13 14  2  0
 14  8  1  0
  1 15  1  0
  1 16  1  0
  1 17  1  0
  2 18  1  0
  3 19  1  0
  3 20  1  0
  3 21  1  0
  4 22  1  0
  5 23  1  0
  6 24  1  0
  6 25  1  0
  6 26  1  0
  7 27  1  0
  7 28  1  0
  9 29  1  0
 10 30  1  0
 13 31  1  0
 14 32  1  0
M  END
> <ID>
HT1107

> <Class>
0.0

> <Clusters>
164

> <Fold>
4

$$$$