
     RDKit          3D

 32 32  0  0  0  0  0  0  0  0999 V2000
   -3.8713   -0.4175    0.7686 C   0  0  0  0  0  0  0  0  0  0  0  0
   -3.4843   -0.1257   -0.6865 C   0  0  0  0  0  0  0  0  0  0  0  0
   -3.5191    1.3812   -0.9904 C   0  0  0  0  0  0  0  0  0  0  0  0
   -2.1977   -0.7611   -1.0406 N   0  0  0  0  0  0  0  0  0  0  0  0
   -1.0116   -0.1006   -0.4707 C   0  0  0  0  0  0  0  0  0  0  0  0
    0.2186   -1.0167   -0.6133 C   0  0  0  0  0  0  0  0  0  0  0  0
    0.0318   -2.1774    0.1561 O   0  0  0  0  0  0  0  0  0  0  0  0
    1.5367   -0.3766   -0.2076 C   0  0  0  0  0  0  0  0  0  0  0  0
    1.6263    0.8643    0.4582 C   0  0  0  0  0  0  0  0  0  0  0  0
    2.8717    1.3929    0.8077 C   0  0  0  0  0  0  0  0  0  0  0  0
    4.0480    0.6966    0.5053 C   0  0  0  0  0  0  0  0  0  0  0  0
    5.2878    1.2288    0.8559 O   0  0  0  0  0  0  0  0  0  0  0  0
    3.9728   -0.5413   -0.1518 C   0  0  0  0  0  0  0  0  0  0  0  0
    5.1250   -1.2616   -0.4657 O   0  0  0  0  0  0  0  0  0  0  0  0
    2.7252   -1.0692   -0.5011 C   0  0  0  0  0  0  0  0  0  0  0  0
   -4.9329   -0.1375    0.9386 H   0  0  0  0  0  0  0  0  0  0  0  0
   -3.2464    0.1587    1.4816 H   0  0  0  0  0  0  0  0  0  0  0  0
   -3.7582   -1.5018    0.9814 H   0  0  0  0  0  0  0  0  0  0  0  0
   -4.2697   -0.5985   -1.3184 H   0  0  0  0  0  0  0  0  0  0  0  0
   -2.8635    1.9469   -0.2950 H   0  0  0  0  0  0  0  0  0  0  0  0
   -3.1904    1.5675   -2.0347 H   0  0  0  0  0  0  0  0  0  0  0  0
   -4.5559    1.7640   -0.8779 H   0  0  0  0  0  0  0  0  0  0  0  0
   -2.1055   -0.7523   -2.0842 H   0  0  0  0  0  0  0  0  0  0  0  0
   -1.1659    0.1153    0.6069 H   0  0  0  0  0  0  0  0  0  0  0  0
   -0.8182    0.8519   -1.0133 H   0  0  0  0  0  0  0  0  0  0  0  0
    0.3113   -1.2869   -1.6927 H   0  0  0  0  0  0  0  0  0  0  0  0
   -0.5328   -2.7950   -0.3785 H   0  0  0  0  0  0  0  0  0  0  0  0
    0.7461    1.4338    0.7197 H   0  0  0  0  0  0  0  0  0  0  0  0
    2.9211    2.3468    1.3175 H   0  0  0  0  0  0  0  0  0  0  0  0
    5.3675    2.1204    1.3310 H   0  0  0  0  0  0  0  0  0  0  0  0
    6.0512   -0.9230   -0.2342 H   0  0  0  0  0  0  0  0  0  0  0  0
    2.6822   -2.0265   -1.0071 H   0  0  0  0  0  0  0  0  0  0  0  0
  1  2  1  0
  2  3  1  0
  2  4  1  0
  4  5  1  0
  5  6  1  0
  6  7  1  0
  6  8  1  0
  8  9  2  0
  9 10  1  0
 10 11  2  0
 11 12  1  0
 11 13  1  0
 13 14  1  0
 13 15  2  0
 15  8  1  0
  1 16  1  0
  1 17  1  0
  1 18  1  0
  2 19  1  0
  3 20  1  0
  3 21  1  0
  3 22  1  0
  4 23  1  0
  5 24  1  0
  5 25  1  0
  6 26  1  0
  7 27  1  0
  9 28  1  0
 10 29  1  0
 12 30  1  0
 14 31  1  0
 15 32  1  0
M  END
> <ID>
HT1137

> <Class>
0.0

> <Clusters>
138

> <Fold>
4

$$$$