
     RDKit          3D

 18 18  0  0  0  0  0  0  0  0999 V2000
    3.0927   -0.0017    0.3202 N   0  0  0  0  0  0  0  0  0  0  0  0
    1.6793    0.1304    0.1466 C   0  0  0  0  0  0  0  0  0  0  0  0
    1.0851    1.3975    0.1468 C   0  0  0  0  0  0  0  0  0  0  0  0
   -0.2957    1.5277   -0.0199 C   0  0  0  0  0  0  0  0  0  0  0  0
   -1.1074    0.3915   -0.1808 C   0  0  0  0  0  0  0  0  0  0  0  0
   -2.5691    0.5637   -0.3431 C   0  0  0  0  0  0  0  0  0  0  0  0
   -3.0141    1.5614   -0.9702 O   0  0  0  0  0  0  0  0  0  0  0  0
   -3.4748   -0.3373    0.2136 O   0  0  0  0  0  0  0  0  0  0  0  0
   -0.5055   -0.8845   -0.2076 C   0  0  0  0  0  0  0  0  0  0  0  0
   -1.2737   -2.0261   -0.4358 O   0  0  0  0  0  0  0  0  0  0  0  0
    0.8814   -1.0067   -0.0327 C   0  0  0  0  0  0  0  0  0  0  0  0
    3.5461   -0.9426    0.3191 H   0  0  0  0  0  0  0  0  0  0  0  0
    3.6962    0.8405    0.4517 H   0  0  0  0  0  0  0  0  0  0  0  0
    1.6915    2.2848    0.2791 H   0  0  0  0  0  0  0  0  0  0  0  0
   -0.7335    2.5185   -0.0066 H   0  0  0  0  0  0  0  0  0  0  0  0
   -3.1801   -1.0797    0.8354 H   0  0  0  0  0  0  0  0  0  0  0  0
   -0.8583   -2.9499   -0.4672 H   0  0  0  0  0  0  0  0  0  0  0  0
    1.3399   -1.9877   -0.0487 H   0  0  0  0  0  0  0  0  0  0  0  0
  1  2  1  0
  2  3  2  0
  3  4  1  0
  4  5  2  0
  5  6  1  0
  6  7  2  0
  6  8  1  0
  5  9  1  0
  9 10  1  0
  9 11  2  0
 11  2  1  0
  1 12  1  0
  1 13  1  0
  3 14  1  0
  4 15  1  0
  8 16  1  0
 10 17  1  0
 11 18  1  0
M  END
> <ID>
HT0139

> <Class>
0.0

> <Clusters>
159

> <Fold>
4

$$$$