
     RDKit          3D

 21 20  0  0  0  0  0  0  0  0999 V2000
    3.3338    0.5246   -0.0504 N   0  0  0  0  0  0  0  0  0  0  0  0
    2.2022   -0.2631    0.4280 C   0  0  0  0  0  0  0  0  0  0  0  0
    0.9348    0.1110   -0.3453 C   0  0  0  0  0  0  0  0  0  0  0  0
   -0.2672   -0.7209    0.1274 C   0  0  0  0  0  0  0  0  0  0  0  0
   -1.5497   -0.3965   -0.6704 C   0  0  0  0  0  0  0  0  0  0  0  0
   -2.6254   -1.3315   -0.3345 N   0  0  0  0  0  0  0  0  0  0  0  0
   -2.0159    1.0105   -0.4191 C   0  0  0  0  0  0  0  0  0  0  0  0
   -2.3555    1.3720    0.7401 O   0  0  0  0  0  0  0  0  0  0  0  0
   -2.0717    1.9188   -1.4717 O   0  0  0  0  0  0  0  0  0  0  0  0
    3.1923    1.5166    0.2501 H   0  0  0  0  0  0  0  0  0  0  0  0
    4.1898    0.1846    0.4448 H   0  0  0  0  0  0  0  0  0  0  0  0
    2.4216   -1.3430    0.2761 H   0  0  0  0  0  0  0  0  0  0  0  0
    2.0511   -0.0827    1.5162 H   0  0  0  0  0  0  0  0  0  0  0  0
    0.7248    1.1922   -0.1936 H   0  0  0  0  0  0  0  0  0  0  0  0
    1.1055   -0.0662   -1.4300 H   0  0  0  0  0  0  0  0  0  0  0  0
   -0.0269   -1.7988   -0.0059 H   0  0  0  0  0  0  0  0  0  0  0  0
   -0.4412   -0.5441    1.2121 H   0  0  0  0  0  0  0  0  0  0  0  0
   -1.3275   -0.5027   -1.7560 H   0  0  0  0  0  0  0  0  0  0  0  0
   -2.3423   -2.2913   -0.6396 H   0  0  0  0  0  0  0  0  0  0  0  0
   -2.7513   -1.3607    0.7042 H   0  0  0  0  0  0  0  0  0  0  0  0
   -2.3813    2.8713   -1.3201 H   0  0  0  0  0  0  0  0  0  0  0  0
  1  2  1  0
  2  3  1  0
  3  4  1  0
  4  5  1  0
  5  6  1  0
  5  7  1  0
  7  8  2  0
  7  9  1  0
  1 10  1  0
  1 11  1  0
  2 12  1  0
  2 13  1  0
  3 14  1  0
  3 15  1  0
  4 16  1  0
  4 17  1  0
  5 18  1  0
  6 19  1  0
  6 20  1  0
  9 21  1  0
M  END
> <ID>
HT1241

> <Class>
0.0

> <Clusters>
148

> <Fold>
4

$$$$