
     RDKit          3D

 54 57  0  0  0  0  0  0  0  0999 V2000
    1.6924    2.5841   -1.3911 O   0  0  0  0  0  0  0  0  0  0  0  0
    1.8812    1.3744   -1.0874 C   0  0  0  0  0  0  0  0  0  0  0  0
    1.2370    0.2989   -1.9430 C   0  0  0  0  0  0  0  0  0  0  0  0
    2.8243    1.0153    0.0147 C   0  0  0  0  0  0  0  0  0  0  0  0
    3.3141    1.9922    0.9105 C   0  0  0  0  0  0  0  0  0  0  0  0
    3.2272   -0.3347    0.1691 C   0  0  0  0  0  0  0  0  0  0  0  0
    4.1755    1.6188    1.9480 C   0  0  0  0  0  0  0  0  0  0  0  0
    2.9433    3.3302    0.7797 O   0  0  0  0  0  0  0  0  0  0  0  0
    2.6795   -1.3331   -0.7870 C   0  0  0  0  0  0  0  0  0  0  0  0
    4.0506   -0.6987    1.2610 C   0  0  0  0  0  0  0  0  0  0  0  0
    4.5283    0.2843    2.1288 C   0  0  0  0  0  0  0  0  0  0  0  0
    1.2734   -1.0932   -1.2906 C   0  0  1  0  0  0  0  0  0  0  0  0
    3.4496   -2.2756   -1.3420 C   0  0  0  0  0  0  0  0  0  0  0  0
    4.4132   -2.3763    1.6581 Cl  0  0  0  0  0  0  0  0  0  0  0  0
    0.2577   -1.2244   -0.1289 C   0  0  1  0  0  0  0  0  0  0  0  0
   -1.2069   -0.8964   -0.5556 C   0  0  2  0  0  0  0  0  0  0  0  0
    0.3046   -2.5470    0.3532 O   0  0  0  0  0  0  0  0  0  0  0  0
   -1.3249    0.4794   -1.3202 C   0  0  1  0  0  0  0  0  0  0  0  0
   -2.1481   -1.0083    0.7097 C   0  0  2  0  0  0  0  0  0  0  0  0
   -1.3306    1.6709   -0.3826 C   0  0  0  0  0  0  0  0  0  0  0  0
   -0.1785    0.6480   -2.3145 C   0  0  0  0  0  0  0  0  0  0  0  0
   -2.5409    0.5265   -2.0280 O   0  0  0  0  0  0  0  0  0  0  0  0
   -3.4326   -1.7278    0.4919 N   0  0  0  0  0  0  0  0  0  0  0  0
   -2.3783    0.3075    1.4175 C   0  0  0  0  0  0  0  0  0  0  0  0
   -1.1944    2.7924   -0.8555 O   0  0  0  0  0  0  0  0  0  0  0  0
   -1.5289    1.5196    1.1069 C   0  0  0  0  0  0  0  0  0  0  0  0
   -0.4021    1.0840   -3.4353 O   0  0  0  0  0  0  0  0  0  0  0  0
   -3.2633   -3.1658    0.2212 C   0  0  0  0  0  0  0  0  0  0  0  0
   -4.3641   -1.1094   -0.4610 C   0  0  0  0  0  0  0  0  0  0  0  0
   -3.1665    0.3374    2.3544 O   0  0  0  0  0  0  0  0  0  0  0  0
   -2.1260    2.7752    1.7032 C   0  0  0  0  0  0  0  0  0  0  0  0
   -3.2813    3.1484    1.3610 O   0  0  0  0  0  0  0  0  0  0  0  0
   -1.3861    3.5525    2.6439 N   0  0  0  0  0  0  0  0  0  0  0  0
    1.8401    0.2438   -2.8782 H   0  0  0  0  0  0  0  0  0  0  0  0
    4.5522    2.3644    2.6370 H   0  0  0  0  0  0  0  0  0  0  0  0
    3.3093    4.0488    1.3960 H   0  0  0  0  0  0  0  0  0  0  0  0
    5.1597    0.0109    2.9649 H   0  0  0  0  0  0  0  0  0  0  0  0
    1.0022   -1.8465   -2.0663 H   0  0  0  0  0  0  0  0  0  0  0  0
    3.0543   -2.9497   -2.0912 H   0  0  0  0  0  0  0  0  0  0  0  0
    4.4984   -2.3638   -1.0921 H   0  0  0  0  0  0  0  0  0  0  0  0
    0.5375   -0.5184    0.6862 H   0  0  0  0  0  0  0  0  0  0  0  0
   -1.4851   -1.6896   -1.2802 H   0  0  0  0  0  0  0  0  0  0  0  0
    1.0177   -2.5857    1.0416 H   0  0  0  0  0  0  0  0  0  0  0  0
   -1.6141   -1.5934    1.4906 H   0  0  0  0  0  0  0  0  0  0  0  0
   -2.5226   -0.1842   -2.7235 H   0  0  0  0  0  0  0  0  0  0  0  0
   -0.5292    1.3558    1.5609 H   0  0  0  0  0  0  0  0  0  0  0  0
   -2.5385   -3.6189    0.9282 H   0  0  0  0  0  0  0  0  0  0  0  0
   -4.2330   -3.6876    0.3662 H   0  0  0  0  0  0  0  0  0  0  0  0
   -2.9230   -3.3504   -0.8185 H   0  0  0  0  0  0  0  0  0  0  0  0
   -4.3918   -0.0065   -0.3373 H   0  0  0  0  0  0  0  0  0  0  0  0
   -5.3906   -1.4812   -0.2585 H   0  0  0  0  0  0  0  0  0  0  0  0
   -4.1093   -1.3755   -1.5077 H   0  0  0  0  0  0  0  0  0  0  0  0
   -0.4178    3.2788    2.9205 H   0  0  0  0  0  0  0  0  0  0  0  0
   -1.8146    4.3998    3.0729 H   0  0  0  0  0  0  0  0  0  0  0  0
  1  2  2  0
  2  3  1  0
  4  2  1  0
  5  4  2  0
  4  6  1  0
  7  5  1  0
  5  8  1  0
  9  6  1  0
  6 10  2  0
 11  7  2  0
 12  9  1  0
  9 13  2  3
 10 14  1  0
 10 11  1  0
  3 12  1  0
 15 12  1  0
 16 15  1  0
 15 17  1  0
 18 16  1  0
 19 16  1  0
 18 20  1  0
 21 18  1  0
 18 22  1  6
 19 23  1  0
 24 19  1  0
 25 20  2  0
 20 26  1  0
  3 21  1  0
 21 27  2  0
 28 23  1  0
 23 29  1  0
 26 24  1  0
 24 30  2  0
 26 31  1  0
 31 32  2  0
 31 33  1  0
  3 34  1  0
  7 35  1  0
  8 36  1  0
 11 37  1  0
 12 38  1  6
 13 39  1  0
 13 40  1  0
 15 41  1  1
 16 42  1  6
 17 43  1  0
 19 44  1  1
 22 45  1  0
 26 46  1  0
 28 47  1  0
 28 48  1  0
 28 49  1  0
 29 50  1  0
 29 51  1  0
 29 52  1  0
 33 53  1  0
 33 54  1  0
M  END
> <ID>
HT1283

> <Class>
0.0

> <Clusters>
225

> <Fold>
4

$$$$