
     RDKit          3D

 14 13  0  0  0  0  0  0  0  0999 V2000
   -0.1674    1.3809   -0.7095 N   0  0  0  0  0  0  0  0  0  0  0  0
   -0.2472    0.4485    0.4190 C   0  0  0  0  0  0  0  0  0  0  0  0
   -1.3231   -0.6165    0.1531 C   0  0  0  0  0  0  0  0  0  0  0  0
   -0.9570   -1.4529   -0.9133 O   0  0  0  0  0  0  0  0  0  0  0  0
    1.0889   -0.1878    0.7212 C   0  0  0  0  0  0  0  0  0  0  0  0
    1.2107   -0.9324    1.7309 O   0  0  0  0  0  0  0  0  0  0  0  0
    2.1923    0.0471   -0.0956 O   0  0  0  0  0  0  0  0  0  0  0  0
    0.2309    0.8945   -1.5458 H   0  0  0  0  0  0  0  0  0  0  0  0
    0.4866    2.1576   -0.4569 H   0  0  0  0  0  0  0  0  0  0  0  0
   -0.5591    1.0242    1.3185 H   0  0  0  0  0  0  0  0  0  0  0  0
   -1.4554   -1.2414    1.0623 H   0  0  0  0  0  0  0  0  0  0  0  0
   -2.3026   -0.1233   -0.0476 H   0  0  0  0  0  0  0  0  0  0  0  0
   -1.2872   -1.0221   -1.7444 H   0  0  0  0  0  0  0  0  0  0  0  0
    3.0896   -0.3765    0.1081 H   0  0  0  0  0  0  0  0  0  0  0  0
  1  2  1  0
  2  3  1  0
  3  4  1  0
  2  5  1  0
  5  6  2  0
  5  7  1  0
  1  8  1  0
  1  9  1  0
  2 10  1  0
  3 11  1  0
  3 12  1  0
  4 13  1  0
  7 14  1  0
M  END
> <ID>
HT1250

> <Class>
0.0

> <Clusters>
148

> <Fold>
4

$$$$