
     RDKit          3D

 26 25  0  0  0  0  0  0  0  0999 V2000
    3.5072   -1.6921    1.0029 N   0  0  0  0  0  0  0  0  0  0  0  0
    2.9624   -0.3339    1.0982 C   0  0  0  0  0  0  0  0  0  0  0  0
    1.8219   -0.1359    0.0810 C   0  0  0  0  0  0  0  0  0  0  0  0
    0.8422    1.3573    0.4617 S   0  0  0  0  0  0  0  0  0  0  0  0
   -0.4598    1.0910   -1.2087 S   0  0  0  0  0  0  0  0  0  0  0  0
   -1.7426    0.2501   -0.2192 C   0  0  0  0  0  0  0  0  0  0  0  0
   -2.9481   -0.1326   -1.0920 C   0  0  0  0  0  0  0  0  0  0  0  0
   -3.7019    1.0604   -1.4836 N   0  0  0  0  0  0  0  0  0  0  0  0
   -3.8499   -1.0708   -0.3336 C   0  0  0  0  0  0  0  0  0  0  0  0
   -4.0223   -2.2468   -0.7494 O   0  0  0  0  0  0  0  0  0  0  0  0
   -4.5046   -0.6548    0.8232 O   0  0  0  0  0  0  0  0  0  0  0  0
    4.0575    0.6839    0.8962 C   0  0  0  0  0  0  0  0  0  0  0  0
    5.1996    0.3307    0.4941 O   0  0  0  0  0  0  0  0  0  0  0  0
    3.8133    2.0261    1.1708 O   0  0  0  0  0  0  0  0  0  0  0  0
    2.7701   -2.3712    1.3028 H   0  0  0  0  0  0  0  0  0  0  0  0
    3.7390   -1.9057    0.0047 H   0  0  0  0  0  0  0  0  0  0  0  0
    2.5582   -0.1986    2.1259 H   0  0  0  0  0  0  0  0  0  0  0  0
    1.1421   -1.0136    0.1162 H   0  0  0  0  0  0  0  0  0  0  0  0
    2.2373   -0.0585   -0.9475 H   0  0  0  0  0  0  0  0  0  0  0  0
   -1.2982   -0.6682    0.2220 H   0  0  0  0  0  0  0  0  0  0  0  0
   -2.0660    0.9195    0.6071 H   0  0  0  0  0  0  0  0  0  0  0  0
   -2.5777   -0.6521   -2.0060 H   0  0  0  0  0  0  0  0  0  0  0  0
   -4.5132    0.7588   -2.0718 H   0  0  0  0  0  0  0  0  0  0  0  0
   -3.1026    1.6454   -2.1094 H   0  0  0  0  0  0  0  0  0  0  0  0
   -4.4013    0.2886    1.1771 H   0  0  0  0  0  0  0  0  0  0  0  0
    4.5375    2.7231    1.0443 H   0  0  0  0  0  0  0  0  0  0  0  0
  1  2  1  0
  2  3  1  0
  3  4  1  0
  4  5  1  0
  5  6  1  0
  6  7  1  0
  7  8  1  0
  7  9  1  0
  9 10  2  0
  9 11  1  0
  2 12  1  0
 12 13  2  0
 12 14  1  0
  1 15  1  0
  1 16  1  0
  2 17  1  0
  3 18  1  0
  3 19  1  0
  6 20  1  0
  6 21  1  0
  7 22  1  0
  8 23  1  0
  8 24  1  0
 11 25  1  0
 14 26  1  0
M  END
> <ID>
HT1181

> <Class>
0.0

> <Clusters>
148

> <Fold>
4

$$$$