
     RDKit          3D

 19 18  0  0  0  0  0  0  0  0999 V2000
   -0.0881    1.8817    0.5952 C   0  0  0  0  0  0  0  0  0  0  0  0
   -0.4209    0.6873   -0.1997 N   0  0  0  0  0  0  0  0  0  0  0  0
    0.7426    0.1883   -0.9724 C   0  0  0  0  0  0  0  0  0  0  0  0
    1.9139   -0.3160   -0.1125 C   0  0  0  0  0  0  0  0  0  0  0  0
    3.2584   -0.8215   -1.1664 Cl  0  0  0  0  0  0  0  0  0  0  0  0
   -1.0967   -0.3314    0.6353 C   0  0  0  0  0  0  0  0  0  0  0  0
   -1.8057   -1.3986   -0.2118 C   0  0  0  0  0  0  0  0  0  0  0  0
   -0.7754   -2.8346   -0.4615 Cl  0  0  0  0  0  0  0  0  0  0  0  0
   -1.0229    2.3930    0.9094 H   0  0  0  0  0  0  0  0  0  0  0  0
    0.4900    1.6137    1.5062 H   0  0  0  0  0  0  0  0  0  0  0  0
    0.4947    2.6100   -0.0090 H   0  0  0  0  0  0  0  0  0  0  0  0
    1.1131    1.0037   -1.6320 H   0  0  0  0  0  0  0  0  0  0  0  0
    0.4172   -0.6177   -1.6616 H   0  0  0  0  0  0  0  0  0  0  0  0
    2.2894    0.4845    0.5565 H   0  0  0  0  0  0  0  0  0  0  0  0
    1.6176   -1.1942    0.4942 H   0  0  0  0  0  0  0  0  0  0  0  0
   -1.8884    0.1679    1.2385 H   0  0  0  0  0  0  0  0  0  0  0  0
   -0.4028   -0.7937    1.3686 H   0  0  0  0  0  0  0  0  0  0  0  0
   -2.7210   -1.7404    0.3171 H   0  0  0  0  0  0  0  0  0  0  0  0
   -2.1150   -0.9821   -1.1940 H   0  0  0  0  0  0  0  0  0  0  0  0
  1  2  1  0
  2  3  1  0
  3  4  1  0
  4  5  1  0
  2  6  1  0
  6  7  1  0
  7  8  1  0
  1  9  1  0
  1 10  1  0
  1 11  1  0
  3 12  1  0
  3 13  1  0
  4 14  1  0
  4 15  1  0
  6 16  1  0
  6 17  1  0
  7 18  1  0
  7 19  1  0
M  END
> <ID>
HT1281

> <Class>
0.0

> <Clusters>
65

> <Fold>
4

$$$$