
     RDKit          3D

 26 26  0  0  0  0  0  0  0  0999 V2000
   -3.3831   -0.9135    0.8215 C   0  0  0  0  0  0  0  0  0  0  0  0
   -2.0114   -0.2253    0.8341 C   0  0  0  0  0  0  0  0  0  0  0  0
   -2.1909    1.2110    1.0853 N   0  0  0  0  0  0  0  0  0  0  0  0
   -1.2378   -0.5105   -0.4897 C   0  0  0  0  0  0  0  0  0  0  0  0
   -1.8547    0.1492   -1.5698 O   0  0  0  0  0  0  0  0  0  0  0  0
    0.2688   -0.2416   -0.4820 C   0  0  0  0  0  0  0  0  0  0  0  0
    0.9839   -0.4852   -1.6664 C   0  0  0  0  0  0  0  0  0  0  0  0
    2.3615   -0.2738   -1.7278 C   0  0  0  0  0  0  0  0  0  0  0  0
    3.0648    0.1758   -0.6077 C   0  0  0  0  0  0  0  0  0  0  0  0
    4.4413    0.3719   -0.7363 O   0  0  0  0  0  0  0  0  0  0  0  0
    2.3676    0.4105    0.5994 C   0  0  0  0  0  0  0  0  0  0  0  0
    3.0039    0.8500    1.7624 O   0  0  0  0  0  0  0  0  0  0  0  0
    0.9838    0.1968    0.6529 C   0  0  0  0  0  0  0  0  0  0  0  0
   -3.2624   -2.0141    0.7292 H   0  0  0  0  0  0  0  0  0  0  0  0
   -4.0003   -0.5472   -0.0266 H   0  0  0  0  0  0  0  0  0  0  0  0
   -3.9208   -0.7023    1.7704 H   0  0  0  0  0  0  0  0  0  0  0  0
   -1.4574   -0.6723    1.6867 H   0  0  0  0  0  0  0  0  0  0  0  0
   -2.8489    1.6158    0.3802 H   0  0  0  0  0  0  0  0  0  0  0  0
   -1.2815    1.7127    0.9791 H   0  0  0  0  0  0  0  0  0  0  0  0
   -1.3317   -1.6016   -0.6847 H   0  0  0  0  0  0  0  0  0  0  0  0
   -1.5766    1.1020   -1.5420 H   0  0  0  0  0  0  0  0  0  0  0  0
    0.4698   -0.8403   -2.5514 H   0  0  0  0  0  0  0  0  0  0  0  0
    2.8880   -0.4626   -2.6550 H   0  0  0  0  0  0  0  0  0  0  0  0
    5.0377    0.6990    0.0100 H   0  0  0  0  0  0  0  0  0  0  0  0
    3.9955    1.0274    1.8317 H   0  0  0  0  0  0  0  0  0  0  0  0
    0.4912    0.3749    1.5964 H   0  0  0  0  0  0  0  0  0  0  0  0
  1  2  1  0
  2  3  1  0
  2  4  1  0
  4  5  1  0
  4  6  1  0
  6  7  2  0
  7  8  1  0
  8  9  2  0
  9 10  1  0
  9 11  1  0
 11 12  1  0
 11 13  2  0
 13  6  1  0
  1 14  1  0
  1 15  1  0
  1 16  1  0
  2 17  1  0
  3 18  1  0
  3 19  1  0
  4 20  1  0
  5 21  1  0
  7 22  1  0
  8 23  1  0
 10 24  1  0
 12 25  1  0
 13 26  1  0
M  END
> <ID>
HT1199

> <Class>
0.0

> <Clusters>
138

> <Fold>
4

$$$$