
     RDKit          3D

 25 24  0  0  0  0  0  0  0  0999 V2000
    2.5161   -1.2644    1.5141 N   0  0  0  0  0  0  0  0  0  0  0  0
    2.5448   -0.8126    0.1205 C   0  0  0  0  0  0  0  0  0  0  0  0
    1.1462   -0.9354   -0.5212 C   0  0  0  0  0  0  0  0  0  0  0  0
    0.0712   -0.1106    0.2076 C   0  0  0  0  0  0  0  0  0  0  0  0
   -1.2968   -0.2764   -0.4624 C   0  0  0  0  0  0  0  0  0  0  0  0
   -2.3164    0.5095    0.2321 N   0  0  0  0  0  0  0  0  0  0  0  0
   -3.6802    0.5195   -0.2063 C   0  0  0  0  0  0  0  0  0  0  0  0
   -4.0319   -0.1566   -1.2104 O   0  0  0  0  0  0  0  0  0  0  0  0
   -4.6500    1.2974    0.4939 N   0  0  0  0  0  0  0  0  0  0  0  0
    3.0624    0.5998    0.0272 C   0  0  0  0  0  0  0  0  0  0  0  0
    3.3010    1.1054   -1.1024 O   0  0  0  0  0  0  0  0  0  0  0  0
    3.2787    1.3530    1.1785 O   0  0  0  0  0  0  0  0  0  0  0  0
    3.4976   -1.2730    1.8771 H   0  0  0  0  0  0  0  0  0  0  0  0
    2.1973   -2.2606    1.5317 H   0  0  0  0  0  0  0  0  0  0  0  0
    3.2429   -1.4666   -0.4500 H   0  0  0  0  0  0  0  0  0  0  0  0
    1.2028   -0.6122   -1.5842 H   0  0  0  0  0  0  0  0  0  0  0  0
    0.8466   -2.0066   -0.5199 H   0  0  0  0  0  0  0  0  0  0  0  0
   -0.0034   -0.4434    1.2657 H   0  0  0  0  0  0  0  0  0  0  0  0
    0.3497    0.9655    0.1938 H   0  0  0  0  0  0  0  0  0  0  0  0
   -1.5897   -1.3490   -0.4457 H   0  0  0  0  0  0  0  0  0  0  0  0
   -1.2343    0.0613   -1.5200 H   0  0  0  0  0  0  0  0  0  0  0  0
   -2.0575    1.0813    1.0684 H   0  0  0  0  0  0  0  0  0  0  0  0
   -5.6453    1.3081    0.1785 H   0  0  0  0  0  0  0  0  0  0  0  0
   -4.3761    1.8632    1.3274 H   0  0  0  0  0  0  0  0  0  0  0  0
    3.6244    2.3034    1.1204 H   0  0  0  0  0  0  0  0  0  0  0  0
  1  2  1  0
  2  3  1  0
  3  4  1  0
  4  5  1  0
  5  6  1  0
  6  7  1  0
  7  8  2  0
  7  9  1  0
  2 10  1  0
 10 11  2  0
 10 12  1  0
  1 13  1  0
  1 14  1  0
  2 15  1  0
  3 16  1  0
  3 17  1  0
  4 18  1  0
  4 19  1  0
  5 20  1  0
  5 21  1  0
  6 22  1  0
  9 23  1  0
  9 24  1  0
 12 25  1  0
M  END
> <ID>
HT1179

> <Class>
0.0

> <Clusters>
148

> <Fold>
4

$$$$