
     RDKit          3D

 24 24  0  0  0  0  0  0  0  0999 V2000
   -1.5301   -1.5707    0.5211 N   0  0  0  0  0  0  0  0  0  0  0  0
   -1.6957   -0.1483    0.8374 C   0  0  1  0  0  0  0  0  0  0  0  0
   -1.0121    0.7169   -0.2380 C   0  0  0  0  0  0  0  0  0  0  0  0
    0.4635    0.4183   -0.3398 C   0  0  0  0  0  0  0  0  0  0  0  0
    0.9833   -0.2287   -1.4736 C   0  0  0  0  0  0  0  0  0  0  0  0
    2.3517   -0.5016   -1.5646 C   0  0  0  0  0  0  0  0  0  0  0  0
    3.2151   -0.1274   -0.5262 C   0  0  0  0  0  0  0  0  0  0  0  0
    4.5799   -0.3945   -0.6060 O   0  0  0  0  0  0  0  0  0  0  0  0
    2.7030    0.5214    0.6018 C   0  0  0  0  0  0  0  0  0  0  0  0
    1.3352    0.7952    0.6957 C   0  0  0  0  0  0  0  0  0  0  0  0
   -3.1532    0.2256    0.9620 C   0  0  0  0  0  0  0  0  0  0  0  0
   -3.4692    1.3822    1.3508 O   0  0  0  0  0  0  0  0  0  0  0  0
   -4.1546   -0.6951    0.6627 O   0  0  0  0  0  0  0  0  0  0  0  0
   -2.0329   -1.7942   -0.3692 H   0  0  0  0  0  0  0  0  0  0  0  0
   -1.9610   -2.1407    1.2854 H   0  0  0  0  0  0  0  0  0  0  0  0
   -1.2135    0.0496    1.8202 H   0  0  0  0  0  0  0  0  0  0  0  0
   -1.1379    1.7950    0.0048 H   0  0  0  0  0  0  0  0  0  0  0  0
   -1.5119    0.5438   -1.2171 H   0  0  0  0  0  0  0  0  0  0  0  0
    0.3303   -0.5274   -2.2841 H   0  0  0  0  0  0  0  0  0  0  0  0
    2.7395   -1.0037   -2.4418 H   0  0  0  0  0  0  0  0  0  0  0  0
    4.9816   -0.8628   -1.4099 H   0  0  0  0  0  0  0  0  0  0  0  0
    3.3660    0.8150    1.4058 H   0  0  0  0  0  0  0  0  0  0  0  0
    0.9556    1.3036    1.5733 H   0  0  0  0  0  0  0  0  0  0  0  0
   -5.1327   -0.4459    0.7491 H   0  0  0  0  0  0  0  0  0  0  0  0
  2  1  1  0
  2  3  1  0
  3  4  1  0
  4  5  2  0
  5  6  1  0
  6  7  2  0
  7  8  1  0
  7  9  1  0
  9 10  2  0
 10  4  1  0
  2 11  1  0
 11 12  2  0
 11 13  1  0
  1 14  1  0
  1 15  1  0
  2 16  1  1
  3 17  1  0
  3 18  1  0
  5 19  1  0
  6 20  1  0
  8 21  1  0
  9 22  1  0
 10 23  1  0
 13 24  1  0
M  END
> <ID>
HT1253

> <Class>
0.0

> <Clusters>
146

> <Fold>
4

$$$$