
     RDKit          3D

 23 23  0  0  0  0  0  0  0  0999 V2000
   -1.1597   -1.5491    1.4582 N   0  0  0  0  0  0  0  0  0  0  0  0
   -1.7763   -0.8192    0.3466 C   0  0  0  0  0  0  0  0  0  0  0  0
   -0.8802   -0.8725   -0.9087 C   0  0  0  0  0  0  0  0  0  0  0  0
    0.4630   -0.2130   -0.6992 C   0  0  0  0  0  0  0  0  0  0  0  0
    1.5113   -0.9138   -0.0784 C   0  0  0  0  0  0  0  0  0  0  0  0
    2.7535   -0.3009    0.1124 C   0  0  0  0  0  0  0  0  0  0  0  0
    2.9605    1.0122   -0.3183 C   0  0  0  0  0  0  0  0  0  0  0  0
    1.9262    1.7139   -0.9432 C   0  0  0  0  0  0  0  0  0  0  0  0
    0.6826    1.1047   -1.1367 C   0  0  0  0  0  0  0  0  0  0  0  0
   -2.0733    0.6083    0.7324 C   0  0  0  0  0  0  0  0  0  0  0  0
   -1.6645    1.0805    1.8280 O   0  0  0  0  0  0  0  0  0  0  0  0
   -2.8029    1.4150   -0.1356 O   0  0  0  0  0  0  0  0  0  0  0  0
   -1.0289   -2.5449    1.1654 H   0  0  0  0  0  0  0  0  0  0  0  0
   -1.8404   -1.5746    2.2526 H   0  0  0  0  0  0  0  0  0  0  0  0
   -2.7455   -1.3071    0.0966 H   0  0  0  0  0  0  0  0  0  0  0  0
   -1.4137   -0.3855   -1.7549 H   0  0  0  0  0  0  0  0  0  0  0  0
   -0.7281   -1.9311   -1.2133 H   0  0  0  0  0  0  0  0  0  0  0  0
    1.3682   -1.9342    0.2541 H   0  0  0  0  0  0  0  0  0  0  0  0
    3.5565   -0.8448    0.5928 H   0  0  0  0  0  0  0  0  0  0  0  0
    3.9226    1.4852   -0.1697 H   0  0  0  0  0  0  0  0  0  0  0  0
    2.0880    2.7304   -1.2779 H   0  0  0  0  0  0  0  0  0  0  0  0
   -0.1102    1.6621   -1.6200 H   0  0  0  0  0  0  0  0  0  0  0  0
   -3.0085    2.3785    0.0997 H   0  0  0  0  0  0  0  0  0  0  0  0
  1  2  1  0
  2  3  1  0
  3  4  1  0
  4  5  2  0
  5  6  1  0
  6  7  2  0
  7  8  1  0
  8  9  2  0
  9  4  1  0
  2 10  1  0
 10 11  2  0
 10 12  1  0
  1 13  1  0
  1 14  1  0
  2 15  1  0
  3 16  1  0
  3 17  1  0
  5 18  1  0
  6 19  1  0
  7 20  1  0
  8 21  1  0
  9 22  1  0
 12 23  1  0
M  END
> <ID>
HT1248

> <Class>
0.0

> <Clusters>
246

> <Fold>
4

$$$$