
     RDKit          3D

 44 44  0  0  0  0  0  0  0  0999 V2000
   -0.2640    1.0810   -2.9227 C   0  0  0  0  0  0  0  0  0  0  0  0
   -1.1633    0.8228   -1.7126 C   0  0  1  0  0  0  0  0  0  0  0  0
   -2.4063    0.0115   -2.1191 C   0  0  0  0  0  0  0  0  0  0  0  0
   -3.2945   -0.2604   -0.9301 C   0  0  0  0  0  0  0  0  0  0  0  0
   -3.3939   -1.5572   -0.3971 C   0  0  0  0  0  0  0  0  0  0  0  0
   -4.1965   -1.7993    0.7219 C   0  0  0  0  0  0  0  0  0  0  0  0
   -4.9072   -0.7522    1.3144 C   0  0  0  0  0  0  0  0  0  0  0  0
   -4.8177    0.5392    0.7879 C   0  0  0  0  0  0  0  0  0  0  0  0
   -4.0157    0.7862   -0.3305 C   0  0  0  0  0  0  0  0  0  0  0  0
   -0.4069    0.0942   -0.6895 N   0  0  0  0  0  0  0  0  0  0  0  0
   -0.2096    0.5984    0.6428 C   0  0  0  0  0  0  0  0  0  0  0  0
   -0.5128    1.7920    0.9144 O   0  0  0  0  0  0  0  0  0  0  0  0
    0.3851   -0.2642    1.7365 C   0  0  1  0  0  0  0  0  0  0  0  0
   -0.2058   -1.6062    1.7770 N   0  0  0  0  0  0  0  0  0  0  0  0
    1.9279   -0.3167    1.6904 C   0  0  0  0  0  0  0  0  0  0  0  0
    2.5184   -0.8485    0.3700 C   0  0  0  0  0  0  0  0  0  0  0  0
    4.0416   -1.0417    0.4427 C   0  0  0  0  0  0  0  0  0  0  0  0
    4.8080    0.2913    0.4904 C   0  0  0  0  0  0  0  0  0  0  0  0
    6.2513    0.0750    0.4144 N   0  0  0  0  0  0  0  0  0  0  0  0
    0.0859    0.1223   -3.3624 H   0  0  0  0  0  0  0  0  0  0  0  0
   -0.8172    1.6540   -3.6972 H   0  0  0  0  0  0  0  0  0  0  0  0
    0.6220    1.6747   -2.6121 H   0  0  0  0  0  0  0  0  0  0  0  0
   -1.4965    1.8116   -1.3283 H   0  0  0  0  0  0  0  0  0  0  0  0
   -2.9890    0.5689   -2.8848 H   0  0  0  0  0  0  0  0  0  0  0  0
   -2.0832   -0.9458   -2.5856 H   0  0  0  0  0  0  0  0  0  0  0  0
   -2.8407   -2.3773   -0.8376 H   0  0  0  0  0  0  0  0  0  0  0  0
   -4.2644   -2.7986    1.1322 H   0  0  0  0  0  0  0  0  0  0  0  0
   -5.5268   -0.9413    2.1813 H   0  0  0  0  0  0  0  0  0  0  0  0
   -5.3689    1.3494    1.2473 H   0  0  0  0  0  0  0  0  0  0  0  0
   -3.9540    1.7918   -0.7274 H   0  0  0  0  0  0  0  0  0  0  0  0
   -0.0393   -0.8488   -0.9450 H   0  0  0  0  0  0  0  0  0  0  0  0
    0.1306    0.2209    2.7063 H   0  0  0  0  0  0  0  0  0  0  0  0
   -1.2402   -1.5109    1.9022 H   0  0  0  0  0  0  0  0  0  0  0  0
   -0.0502   -2.1135    0.8792 H   0  0  0  0  0  0  0  0  0  0  0  0
    2.3092    0.7113    1.8698 H   0  0  0  0  0  0  0  0  0  0  0  0
    2.2806   -0.9525    2.5321 H   0  0  0  0  0  0  0  0  0  0  0  0
    2.0704   -1.8355    0.1331 H   0  0  0  0  0  0  0  0  0  0  0  0
    2.2802   -0.1534   -0.4634 H   0  0  0  0  0  0  0  0  0  0  0  0
    4.3594   -1.6037   -0.4627 H   0  0  0  0  0  0  0  0  0  0  0  0
    4.3025   -1.6598    1.3295 H   0  0  0  0  0  0  0  0  0  0  0  0
    4.4960    0.9375   -0.3588 H   0  0  0  0  0  0  0  0  0  0  0  0
    4.5813    0.8286    1.4351 H   0  0  0  0  0  0  0  0  0  0  0  0
    6.5407   -0.5529    1.1995 H   0  0  0  0  0  0  0  0  0  0  0  0
    6.4736   -0.4139   -0.4833 H   0  0  0  0  0  0  0  0  0  0  0  0
  2  1  1  0
  2  3  1  0
  3  4  1  0
  4  5  2  0
  5  6  1  0
  6  7  2  0
  7  8  1  0
  8  9  2  0
  9  4  1  0
  2 10  1  0
 10 11  1  0
 11 12  2  0
 11 13  1  0
 13 14  1  0
 13 15  1  0
 15 16  1  0
 16 17  1  0
 17 18  1  0
 18 19  1  0
  1 20  1  0
  1 21  1  0
  1 22  1  0
  2 23  1  1
  3 24  1  0
  3 25  1  0
  5 26  1  0
  6 27  1  0
  7 28  1  0
  8 29  1  0
  9 30  1  0
 10 31  1  0
 13 32  1  1
 14 33  1  0
 14 34  1  0
 15 35  1  0
 15 36  1  0
 16 37  1  0
 16 38  1  0
 17 39  1  0
 17 40  1  0
 18 41  1  0
 18 42  1  0
 19 43  1  0
 19 44  1  0
M  END
> <ID>
HT1217

> <Class>
0.0

> <Clusters>
164

> <Fold>
4

$$$$