
     RDKit          3D

 27 26  0  0  0  0  0  0  0  0999 V2000
   -2.7442   -0.7522   -0.2700 C   0  0  0  0  0  0  0  0  0  0  0  0
   -1.4391   -0.0419   -0.2817 N   0  0  0  0  0  0  0  0  0  0  0  0
   -1.2365    0.4805   -1.6561 C   0  0  0  0  0  0  0  0  0  0  0  0
   -1.5284    1.0873    0.6743 C   0  0  0  0  0  0  0  0  0  0  0  0
   -0.3711   -1.0331    0.0899 C   0  0  0  0  0  0  0  0  0  0  0  0
    0.9750   -0.4902    0.6679 C   0  0  1  0  0  0  0  0  0  0  0  0
    1.7154   -1.5768    1.1727 O   0  0  0  0  0  0  0  0  0  0  0  0
    1.8281    0.3041   -0.3460 C   0  0  0  0  0  0  0  0  0  0  0  0
    3.2312    0.5017    0.1449 C   0  0  0  0  0  0  0  0  0  0  0  0
    4.2015    0.0279   -0.5048 O   0  0  0  0  0  0  0  0  0  0  0  0
    3.4619    1.2158    1.3168 O   0  0  0  0  0  0  0  0  0  0  0  0
   -2.9942   -1.1196    0.7511 H   0  0  0  0  0  0  0  0  0  0  0  0
   -3.5765   -0.0860   -0.5928 H   0  0  0  0  0  0  0  0  0  0  0  0
   -2.7273   -1.6301   -0.9551 H   0  0  0  0  0  0  0  0  0  0  0  0
   -0.3398    1.1183   -1.7366 H   0  0  0  0  0  0  0  0  0  0  0  0
   -2.0951    1.1144   -1.9739 H   0  0  0  0  0  0  0  0  0  0  0  0
   -1.1392   -0.3481   -2.3926 H   0  0  0  0  0  0  0  0  0  0  0  0
   -2.4190    1.7218    0.4642 H   0  0  0  0  0  0  0  0  0  0  0  0
   -1.6128    0.7157    1.7199 H   0  0  0  0  0  0  0  0  0  0  0  0
   -0.6435    1.7542    0.6034 H   0  0  0  0  0  0  0  0  0  0  0  0
   -0.1448   -1.6972   -0.7754 H   0  0  0  0  0  0  0  0  0  0  0  0
   -0.7623   -1.7178    0.8786 H   0  0  0  0  0  0  0  0  0  0  0  0
    0.7666    0.1681    1.5365 H   0  0  0  0  0  0  0  0  0  0  0  0
    1.9415   -2.1676    0.4065 H   0  0  0  0  0  0  0  0  0  0  0  0
    1.8441   -0.2242   -1.3246 H   0  0  0  0  0  0  0  0  0  0  0  0
    1.4046    1.3165   -0.4887 H   0  0  0  0  0  0  0  0  0  0  0  0
    4.4038    1.3587    1.6611 H   0  0  0  0  0  0  0  0  0  0  0  0
  1  2  1  0
  2  3  1  0
  2  4  1  0
  2  5  1  0
  5  6  1  0
  6  7  1  0
  6  8  1  0
  8  9  1  0
  9 10  2  0
  9 11  1  0
  1 12  1  0
  1 13  1  0
  1 14  1  0
  3 15  1  0
  3 16  1  0
  3 17  1  0
  4 18  1  0
  4 19  1  0
  4 20  1  0
  5 21  1  0
  5 22  1  0
  6 23  1  1
  7 24  1  0
  8 25  1  0
  8 26  1  0
 11 27  1  0
M  CHG  1   2   1
M  END
> <ID>
HT1195

> <Class>
0.0

> <Clusters>
4

> <Fold>
4

$$$$