
     RDKit          3D

 54 57  0  0  0  0  0  0  0  0999 V2000
    2.6245    0.3456   -1.7391 C   0  0  0  0  0  0  0  0  0  0  0  0
    1.7245    0.3485   -0.4714 C   0  0  0  0  0  0  0  0  0  0  0  0
    0.8305    1.6260   -0.5422 C   0  0  0  0  0  0  0  0  0  0  0  0
   -0.5113    1.4908    0.2087 C   0  0  0  0  0  0  0  0  0  0  0  0
   -1.1400    2.7466    0.1730 O   0  0  0  0  0  0  0  0  0  0  0  0
   -1.4171    0.4222   -0.4757 C   0  0  0  0  0  0  0  0  0  0  0  0
   -0.5809   -0.7824   -1.0547 C   0  0  0  0  0  0  0  0  0  0  0  0
   -1.3259   -2.1359   -1.1055 C   0  0  0  0  0  0  0  0  0  0  0  0
   -2.8058   -1.9931   -1.4512 C   0  0  0  0  0  0  0  0  0  0  0  0
   -3.5203   -0.9499   -0.6243 C   0  0  0  0  0  0  0  0  0  0  0  0
   -4.8512   -0.8556   -0.7783 C   0  0  0  0  0  0  0  0  0  0  0  0
   -5.6033    0.2443   -0.1787 C   0  0  0  0  0  0  0  0  0  0  0  0
   -6.8580    0.2850   -0.2770 O   0  0  0  0  0  0  0  0  0  0  0  0
   -4.8821    1.3190    0.4946 C   0  0  0  0  0  0  0  0  0  0  0  0
   -3.5603    1.2470    0.6561 C   0  0  0  0  0  0  0  0  0  0  0  0
   -2.7349    0.0059    0.2970 C   0  0  0  0  0  0  0  0  0  0  0  0
   -2.4758   -0.7022    1.6460 C   0  0  0  0  0  0  0  0  0  0  0  0
    0.8603   -0.9518   -0.4773 C   0  0  0  0  0  0  0  0  0  0  0  0
    0.9569   -1.5228    0.9358 C   0  0  0  0  0  0  0  0  0  0  0  0
    2.3533   -1.1566    1.3884 C   0  0  0  0  0  0  0  0  0  0  0  0
    2.5653    0.2785    0.8767 C   0  0  0  0  0  0  0  0  0  0  0  0
    2.0308    1.1678    1.8367 O   0  0  0  0  0  0  0  0  0  0  0  0
    4.0467    0.5903    0.7027 C   0  0  0  0  0  0  0  0  0  0  0  0
    4.4773    1.7466    0.9701 O   0  0  0  0  0  0  0  0  0  0  0  0
    4.9251   -0.3900    0.2269 O   0  0  0  0  0  0  0  0  0  0  0  0
    6.3107   -0.1459    0.0219 C   0  0  0  0  0  0  0  0  0  0  0  0
    7.0719   -1.6139   -0.6301 Cl  0  0  0  0  0  0  0  0  0  0  0  0
    3.2378    1.2710   -1.7908 H   0  0  0  0  0  0  0  0  0  0  0  0
    2.0031    0.2964   -2.6595 H   0  0  0  0  0  0  0  0  0  0  0  0
    3.3010   -0.5349   -1.7513 H   0  0  0  0  0  0  0  0  0  0  0  0
    0.5891    1.8729   -1.6012 H   0  0  0  0  0  0  0  0  0  0  0  0
    1.3979    2.5023   -0.1584 H   0  0  0  0  0  0  0  0  0  0  0  0
   -0.3328    1.1972    1.2626 H   0  0  0  0  0  0  0  0  0  0  0  0
   -0.7185    3.3026    0.8801 H   0  0  0  0  0  0  0  0  0  0  0  0
   -1.8069    0.9453   -1.3827 H   0  0  0  0  0  0  0  0  0  0  0  0
   -0.4097   -0.5251   -2.1267 H   0  0  0  0  0  0  0  0  0  0  0  0
   -0.8497   -2.7781   -1.8791 H   0  0  0  0  0  0  0  0  0  0  0  0
   -1.2277   -2.7025   -0.1620 H   0  0  0  0  0  0  0  0  0  0  0  0
   -2.9001   -1.7216   -2.5255 H   0  0  0  0  0  0  0  0  0  0  0  0
   -3.2935   -2.9821   -1.3033 H   0  0  0  0  0  0  0  0  0  0  0  0
   -5.3812   -1.5580   -1.4122 H   0  0  0  0  0  0  0  0  0  0  0  0
   -5.4261    2.1757    0.8740 H   0  0  0  0  0  0  0  0  0  0  0  0
   -3.1093    2.0260    1.2536 H   0  0  0  0  0  0  0  0  0  0  0  0
   -1.8961   -0.0564    2.3368 H   0  0  0  0  0  0  0  0  0  0  0  0
   -1.9531   -1.6646    1.5443 H   0  0  0  0  0  0  0  0  0  0  0  0
   -3.4436   -0.9306    2.1445 H   0  0  0  0  0  0  0  0  0  0  0  0
    1.3589   -1.7136   -1.1231 H   0  0  0  0  0  0  0  0  0  0  0  0
    0.8177   -2.6253    0.9539 H   0  0  0  0  0  0  0  0  0  0  0  0
    0.2306   -1.0438    1.6171 H   0  0  0  0  0  0  0  0  0  0  0  0
    3.0691   -1.8679    0.9199 H   0  0  0  0  0  0  0  0  0  0  0  0
    2.4500   -1.2394    2.4931 H   0  0  0  0  0  0  0  0  0  0  0  0
    2.5399    1.0626    2.6841 H   0  0  0  0  0  0  0  0  0  0  0  0
    6.4465    0.6843   -0.7038 H   0  0  0  0  0  0  0  0  0  0  0  0
    6.7957    0.1166    0.9861 H   0  0  0  0  0  0  0  0  0  0  0  0
  1  2  1  0
  2  3  1  0
  3  4  1  0
  4  5  1  0
  4  6  1  0
  6  7  1  0
  7  8  1  0
  8  9  1  0
  9 10  1  0
 10 11  2  0
 11 12  1  0
 12 13  2  0
 12 14  1  0
 14 15  2  0
 15 16  1  0
 16  6  1  0
 16 10  1  0
 16 17  1  0
  7 18  1  0
 18  2  1  0
 18 19  1  0
 19 20  1  0
 20 21  1  0
 21  2  1  0
 21 22  1  0
 21 23  1  0
 23 24  2  0
 23 25  1  0
 25 26  1  0
 26 27  1  0
  1 28  1  0
  1 29  1  0
  1 30  1  0
  3 31  1  0
  3 32  1  0
  4 33  1  0
  5 34  1  0
  6 35  1  0
  7 36  1  0
  8 37  1  0
  8 38  1  0
  9 39  1  0
  9 40  1  0
 11 41  1  0
 14 42  1  0
 15 43  1  0
 17 44  1  0
 17 45  1  0
 17 46  1  0
 18 47  1  0
 19 48  1  0
 19 49  1  0
 20 50  1  0
 20 51  1  0
 22 52  1  0
 26 53  1  0
 26 54  1  0
M  END
> <ID>
HT1244

> <Class>
0.0

> <Clusters>
202

> <Fold>
4

$$$$