
     RDKit          3D

 81 84  0  0  0  0  0  0  0  0999 V2000
    0.9844   -1.2741    0.6649 O   0  0  0  0  0  0  0  0  0  0  0  0
    0.1388   -0.8531    1.4424 C   0  0  0  0  0  0  0  0  0  0  0  0
    0.5770   -0.3702    2.8096 C   0  0  0  0  0  0  0  0  0  0  0  0
   -1.3468   -1.0685    1.1499 C   0  0  0  0  0  0  0  0  0  0  0  0
   -1.6671   -1.2139   -0.3360 C   0  0  0  0  0  0  0  0  0  0  0  0
   -2.1927    0.1378    1.6800 C   0  0  0  0  0  0  0  0  0  0  0  0
   -1.7495   -2.2403    1.8233 O   0  0  0  0  0  0  0  0  0  0  0  0
   -0.8185   -1.0367   -1.1993 O   0  0  0  0  0  0  0  0  0  0  0  0
   -3.1156   -1.4530   -0.7042 C   0  0  0  0  0  0  0  0  0  0  0  0
   -1.9034    0.3867    3.1979 C   0  0  0  0  0  0  0  0  0  0  0  0
   -3.7009   -0.1000    1.3658 C   0  0  0  0  0  0  0  0  0  0  0  0
   -3.9405   -0.2682   -0.1611 C   0  0  0  0  0  0  0  0  0  0  0  0
   -3.3391   -1.6536   -2.1854 C   0  0  0  0  0  0  0  0  0  0  0  0
   -2.6419    1.5161    3.8287 N   0  0  0  0  0  0  0  0  0  0  0  0
   -0.4172    0.6107    3.3871 C   0  0  0  0  0  0  0  0  0  0  0  0
   -5.4446   -0.3600   -0.5816 C   0  0  0  0  0  0  0  0  0  0  0  0
   -4.4947   -1.0202   -2.8749 C   0  0  0  0  0  0  0  0  0  0  0  0
   -2.5892   -2.4528   -2.8100 O   0  0  0  0  0  0  0  0  0  0  0  0
   -3.8791    1.1391    4.5310 C   0  0  0  0  0  0  0  0  0  0  0  0
   -2.7706    2.7563    3.0455 C   0  0  0  0  0  0  0  0  0  0  0  0
   -0.0232    1.5485    4.0680 O   0  0  0  0  0  0  0  0  0  0  0  0
   -5.5263   -0.4150   -2.1068 C   0  0  0  0  0  0  0  0  0  0  0  0
   -6.1607   -1.6144   -0.0219 C   0  0  0  0  0  0  0  0  0  0  0  0
   -6.1031    0.8124   -0.1479 O   0  0  0  0  0  0  0  0  0  0  0  0
   -4.5952   -1.0328   -4.2870 C   0  0  0  0  0  0  0  0  0  0  0  0
   -6.6591    0.1014   -2.7680 C   0  0  0  0  0  0  0  0  0  0  0  0
   -3.5752   -1.5744   -5.0708 O   0  0  0  0  0  0  0  0  0  0  0  0
   -5.7222   -0.4898   -4.9140 C   0  0  0  0  0  0  0  0  0  0  0  0
   -6.7503    0.0667   -4.1583 C   0  0  0  0  0  0  0  0  0  0  0  0
    1.9647    0.2247    2.7603 C   0  0  0  0  0  0  0  0  0  0  0  0
    2.8581   -0.2269    3.5255 O   0  0  0  0  0  0  0  0  0  0  0  0
    2.2615    1.3036    1.8596 N   0  0  0  0  0  0  0  0  0  0  0  0
    3.5950    1.8862    1.7510 C   0  0  0  0  0  0  0  0  0  0  0  0
    4.5680    0.8441    1.3962 N   0  0  0  0  0  0  0  0  0  0  0  0
    5.9359    1.3801    1.2825 C   0  0  0  0  0  0  0  0  0  0  0  0
    6.2559    1.9751   -0.1096 C   0  0  0  0  0  0  0  0  0  0  0  0
    6.2817    0.9691   -1.2808 C   0  0  0  0  0  0  0  0  0  0  0  0
    7.2857   -0.1787   -1.0679 C   0  0  0  0  0  0  0  0  0  0  0  0
    7.4311   -1.0810   -2.3170 C   0  0  0  0  0  0  0  0  0  0  0  0
    8.0887   -0.3829   -3.4291 N   0  0  0  0  0  0  0  0  0  0  0  0
    8.2089   -2.3261   -1.9709 C   0  0  0  0  0  0  0  0  0  0  0  0
    7.7375   -3.1458   -1.1357 O   0  0  0  0  0  0  0  0  0  0  0  0
    9.4417   -2.5841   -2.5701 O   0  0  0  0  0  0  0  0  0  0  0  0
    0.5890   -1.2550    3.4832 H   0  0  0  0  0  0  0  0  0  0  0  0
   -1.8696    1.0415    1.1153 H   0  0  0  0  0  0  0  0  0  0  0  0
   -1.2762   -3.0088    1.4109 H   0  0  0  0  0  0  0  0  0  0  0  0
   -3.4337   -2.3890   -0.1959 H   0  0  0  0  0  0  0  0  0  0  0  0
   -2.1400   -0.5546    3.7430 H   0  0  0  0  0  0  0  0  0  0  0  0
   -4.2883    0.7696    1.6971 H   0  0  0  0  0  0  0  0  0  0  0  0
   -4.0596   -0.9918    1.9247 H   0  0  0  0  0  0  0  0  0  0  0  0
   -3.5458    0.6615   -0.6379 H   0  0  0  0  0  0  0  0  0  0  0  0
   -4.2483    1.9969    5.1323 H   0  0  0  0  0  0  0  0  0  0  0  0
   -4.6798    0.8260    3.8313 H   0  0  0  0  0  0  0  0  0  0  0  0
   -3.6766    0.3096    5.2396 H   0  0  0  0  0  0  0  0  0  0  0  0
   -1.8659    2.9381    2.4314 H   0  0  0  0  0  0  0  0  0  0  0  0
   -3.6642    2.7384    2.3912 H   0  0  0  0  0  0  0  0  0  0  0  0
   -2.8716    3.6191    3.7375 H   0  0  0  0  0  0  0  0  0  0  0  0
   -6.0668   -1.6793    1.0815 H   0  0  0  0  0  0  0  0  0  0  0  0
   -5.7524   -2.5459   -0.4678 H   0  0  0  0  0  0  0  0  0  0  0  0
   -7.2445   -1.5713   -0.2617 H   0  0  0  0  0  0  0  0  0  0  0  0
   -6.3645    0.7068    0.8026 H   0  0  0  0  0  0  0  0  0  0  0  0
   -7.4837    0.5233   -2.2076 H   0  0  0  0  0  0  0  0  0  0  0  0
   -3.6291   -1.5812   -6.0828 H   0  0  0  0  0  0  0  0  0  0  0  0
   -5.8035   -0.5033   -5.9934 H   0  0  0  0  0  0  0  0  0  0  0  0
   -7.6233    0.4723   -4.6531 H   0  0  0  0  0  0  0  0  0  0  0  0
    1.5021    1.6837    1.2518 H   0  0  0  0  0  0  0  0  0  0  0  0
    3.8613    2.3441    2.7283 H   0  0  0  0  0  0  0  0  0  0  0  0
    3.5816    2.6871    0.9784 H   0  0  0  0  0  0  0  0  0  0  0  0
    4.2683    0.3768    0.5100 H   0  0  0  0  0  0  0  0  0  0  0  0
    6.6560    0.5747    1.5315 H   0  0  0  0  0  0  0  0  0  0  0  0
    6.1129    2.1695    2.0505 H   0  0  0  0  0  0  0  0  0  0  0  0
    5.5249    2.7785   -0.3462 H   0  0  0  0  0  0  0  0  0  0  0  0
    7.2548    2.4603   -0.0529 H   0  0  0  0  0  0  0  0  0  0  0  0
    5.2683    0.5585   -1.4680 H   0  0  0  0  0  0  0  0  0  0  0  0
    6.5629    1.5460   -2.1885 H   0  0  0  0  0  0  0  0  0  0  0  0
    8.2776    0.2360   -0.7830 H   0  0  0  0  0  0  0  0  0  0  0  0
    6.9205   -0.8077   -0.2277 H   0  0  0  0  0  0  0  0  0  0  0  0
    6.4204   -1.4058   -2.6494 H   0  0  0  0  0  0  0  0  0  0  0  0
    8.9076    0.1611   -3.0736 H   0  0  0  0  0  0  0  0  0  0  0  0
    7.4138    0.2822   -3.8663 H   0  0  0  0  0  0  0  0  0  0  0  0
    9.9775   -3.4094   -2.3255 H   0  0  0  0  0  0  0  0  0  0  0  0
  1  2  2  0
  2  3  1  0
  4  2  1  0
  5  4  1  0
  4  6  1  0
  4  7  1  0
  8  5  2  0
  5  9  1  0
 10  6  1  0
  6 11  1  0
 12  9  1  0
  9 13  1  0
 14 10  1  0
 15 10  1  0
 11 12  1  0
 16 12  1  0
 13 17  1  0
 13 18  2  0
 19 14  1  0
 14 20  1  0
  3 15  1  0
 15 21  2  0
 22 16  1  0
 16 23  1  0
 16 24  1  0
 22 17  2  0
 17 25  1  0
 26 22  1  0
 25 27  1  0
 25 28  2  0
 29 26  2  0
 28 29  1  0
  3 30  1  0
 30 31  2  0
 30 32  1  0
 32 33  1  0
 33 34  1  0
 34 35  1  0
 35 36  1  0
 36 37  1  0
 37 38  1  0
 38 39  1  0
 39 40  1  0
 39 41  1  0
 41 42  2  0
 41 43  1  0
  3 44  1  0
  6 45  1  0
  7 46  1  0
  9 47  1  0
 10 48  1  0
 11 49  1  0
 11 50  1  0
 12 51  1  0
 19 52  1  0
 19 53  1  0
 19 54  1  0
 20 55  1  0
 20 56  1  0
 20 57  1  0
 23 58  1  0
 23 59  1  0
 23 60  1  0
 24 61  1  0
 26 62  1  0
 27 63  1  0
 28 64  1  0
 29 65  1  0
 32 66  1  0
 33 67  1  0
 33 68  1  0
 34 69  1  0
 35 70  1  0
 35 71  1  0
 36 72  1  0
 36 73  1  0
 37 74  1  0
 37 75  1  0
 38 76  1  0
 38 77  1  0
 39 78  1  0
 40 79  1  0
 40 80  1  0
 43 81  1  0
M  END
> <ID>
HT1260

> <Class>
0.0

> <Clusters>
225

> <Fold>
4

$$$$