
     RDKit          3D

 86 89  0  0  0  0  0  0  0  0999 V2000
   -6.8097   -0.1301    1.0788 O   0  0  0  0  0  0  0  0  0  0  0  0
   -6.3075    0.7456    0.3211 C   0  0  0  0  0  0  0  0  0  0  0  0
   -5.9794    0.3945   -1.1071 C   0  0  0  0  0  0  0  0  0  0  0  0
   -6.0363    2.0312    0.8006 O   0  0  0  0  0  0  0  0  0  0  0  0
   -6.2854    2.4220    2.1432 C   0  0  0  0  0  0  0  0  0  0  0  0
   -4.4526    0.3331   -1.3844 C   0  0  0  0  0  0  0  0  0  0  0  0
   -6.6193    1.4184   -2.0127 C   0  0  0  0  0  0  0  0  0  0  0  0
   -3.8356    1.7243   -1.4821 C   0  0  0  0  0  0  0  0  0  0  0  0
   -3.7337   -0.5995   -0.4127 C   0  0  0  0  0  0  0  0  0  0  0  0
   -5.9625    2.4867   -2.3573 N   0  0  0  0  0  0  0  0  0  0  0  0
   -8.0442    1.2746   -2.4410 C   0  0  0  0  0  0  0  0  0  0  0  0
   -4.5902    2.7273   -2.0009 C   0  0  0  0  0  0  0  0  0  0  0  0
   -2.3845    1.8897   -1.2343 C   0  0  0  0  0  0  0  0  0  0  0  0
   -3.4186   -0.1941    0.8980 C   0  0  0  0  0  0  0  0  0  0  0  0
   -3.3539   -1.8864   -0.8347 C   0  0  0  0  0  0  0  0  0  0  0  0
   -4.0340    4.0943   -2.2853 C   0  0  0  0  0  0  0  0  0  0  0  0
   -1.9531    2.9257   -0.6574 O   0  0  0  0  0  0  0  0  0  0  0  0
   -1.5091    0.8707   -1.6412 O   0  0  0  0  0  0  0  0  0  0  0  0
   -2.7428   -1.0566    1.7615 C   0  0  0  0  0  0  0  0  0  0  0  0
   -2.6638   -2.7580    0.0275 C   0  0  0  0  0  0  0  0  0  0  0  0
   -0.1030    0.7866   -1.3632 C   0  0  0  0  0  0  0  0  0  0  0  0
   -2.3629   -2.3291    1.3321 C   0  0  0  0  0  0  0  0  0  0  0  0
   -2.2692   -4.0667   -0.4257 N   0  0  0  0  0  0  0  0  0  0  0  0
    0.6161    2.0720   -1.8366 C   0  0  0  0  0  0  0  0  0  0  0  0
    0.4285   -0.3949   -2.1956 C   0  0  0  0  0  0  0  0  0  0  0  0
    0.1062    0.5227    0.1596 C   0  0  0  0  0  0  0  0  0  0  0  0
   -1.6066   -4.8222    0.3129 O   0  0  0  0  0  0  0  0  0  0  0  0
   -2.5913   -4.4931   -1.6934 O   0  0  0  0  0  0  0  0  0  0  0  0
    1.4757    0.8820    0.6052 N   0  0  0  0  0  0  0  0  0  0  0  0
    1.4351    1.5996    1.8917 C   0  0  0  0  0  0  0  0  0  0  0  0
    2.3715   -0.2935    0.6910 C   0  0  0  0  0  0  0  0  0  0  0  0
    3.8236    0.1416    0.4279 C   0  0  0  0  0  0  0  0  0  0  0  0
    4.7741   -1.0445    0.1419 C   0  0  0  0  0  0  0  0  0  0  0  0
    4.8297   -2.0917    1.2459 C   0  0  0  0  0  0  0  0  0  0  0  0
    6.1702   -0.5433   -0.1982 C   0  0  0  0  0  0  0  0  0  0  0  0
    4.8875   -3.4538    0.8963 C   0  0  0  0  0  0  0  0  0  0  0  0
    4.8754   -1.7414    2.6112 C   0  0  0  0  0  0  0  0  0  0  0  0
    6.7037   -0.7703   -1.4813 C   0  0  0  0  0  0  0  0  0  0  0  0
    6.9377    0.1790    0.7378 C   0  0  0  0  0  0  0  0  0  0  0  0
    4.9830   -4.4407    1.8833 C   0  0  0  0  0  0  0  0  0  0  0  0
    4.9677   -2.7327    3.5935 C   0  0  0  0  0  0  0  0  0  0  0  0
    7.9631   -0.2709   -1.8265 C   0  0  0  0  0  0  0  0  0  0  0  0
    8.1988    0.6718    0.3893 C   0  0  0  0  0  0  0  0  0  0  0  0
    5.0186   -4.0785    3.2300 C   0  0  0  0  0  0  0  0  0  0  0  0
    8.7080    0.4534   -0.8938 C   0  0  0  0  0  0  0  0  0  0  0  0
   -6.4051   -0.6083   -1.3418 H   0  0  0  0  0  0  0  0  0  0  0  0
   -7.3675    2.3312    2.3743 H   0  0  0  0  0  0  0  0  0  0  0  0
   -5.9808    3.4793    2.2764 H   0  0  0  0  0  0  0  0  0  0  0  0
   -5.6960    1.7846    2.8361 H   0  0  0  0  0  0  0  0  0  0  0  0
   -4.3478   -0.0957   -2.4059 H   0  0  0  0  0  0  0  0  0  0  0  0
   -8.4977    0.3602   -2.0026 H   0  0  0  0  0  0  0  0  0  0  0  0
   -8.6282    2.1534   -2.1045 H   0  0  0  0  0  0  0  0  0  0  0  0
   -8.0908    1.2031   -3.5462 H   0  0  0  0  0  0  0  0  0  0  0  0
   -3.6810    0.7963    1.2499 H   0  0  0  0  0  0  0  0  0  0  0  0
   -3.5926   -2.2093   -1.8385 H   0  0  0  0  0  0  0  0  0  0  0  0
   -3.8224    4.6232   -1.3338 H   0  0  0  0  0  0  0  0  0  0  0  0
   -3.1085    4.0163   -2.8925 H   0  0  0  0  0  0  0  0  0  0  0  0
   -4.7692    4.6967   -2.8621 H   0  0  0  0  0  0  0  0  0  0  0  0
   -2.5000   -0.7335    2.7652 H   0  0  0  0  0  0  0  0  0  0  0  0
   -1.8303   -2.9743    2.0188 H   0  0  0  0  0  0  0  0  0  0  0  0
    1.7153    1.9125   -1.8920 H   0  0  0  0  0  0  0  0  0  0  0  0
    0.4493    2.9212   -1.1402 H   0  0  0  0  0  0  0  0  0  0  0  0
    0.2549    2.3611   -2.8496 H   0  0  0  0  0  0  0  0  0  0  0  0
    1.5364   -0.4684   -2.1388 H   0  0  0  0  0  0  0  0  0  0  0  0
    0.1640   -0.2517   -3.2631 H   0  0  0  0  0  0  0  0  0  0  0  0
   -0.0241   -1.3503   -1.8566 H   0  0  0  0  0  0  0  0  0  0  0  0
   -0.6537    1.1197    0.7083 H   0  0  0  0  0  0  0  0  0  0  0  0
   -0.1423   -0.5320    0.4150 H   0  0  0  0  0  0  0  0  0  0  0  0
    1.0162    0.9582    2.7011 H   0  0  0  0  0  0  0  0  0  0  0  0
    2.4534    1.9378    2.1805 H   0  0  0  0  0  0  0  0  0  0  0  0
    0.8103    2.5133    1.7991 H   0  0  0  0  0  0  0  0  0  0  0  0
    2.0947   -1.0630   -0.0603 H   0  0  0  0  0  0  0  0  0  0  0  0
    2.2894   -0.7930    1.6825 H   0  0  0  0  0  0  0  0  0  0  0  0
    3.8267    0.8098   -0.4640 H   0  0  0  0  0  0  0  0  0  0  0  0
    4.1959    0.7447    1.2833 H   0  0  0  0  0  0  0  0  0  0  0  0
    4.3560   -1.5410   -0.7649 H   0  0  0  0  0  0  0  0  0  0  0  0
    4.8667   -3.7549   -0.1433 H   0  0  0  0  0  0  0  0  0  0  0  0
    4.8421   -0.7094    2.9269 H   0  0  0  0  0  0  0  0  0  0  0  0
    6.1393   -1.3227   -2.2209 H   0  0  0  0  0  0  0  0  0  0  0  0
    6.5592    0.3758    1.7311 H   0  0  0  0  0  0  0  0  0  0  0  0
    5.0291   -5.4853    1.6025 H   0  0  0  0  0  0  0  0  0  0  0  0
    5.0043   -2.4534    4.6387 H   0  0  0  0  0  0  0  0  0  0  0  0
    8.3599   -0.4442   -2.8170 H   0  0  0  0  0  0  0  0  0  0  0  0
    8.7788    1.2315    1.1124 H   0  0  0  0  0  0  0  0  0  0  0  0
    5.0937   -4.8428    3.9935 H   0  0  0  0  0  0  0  0  0  0  0  0
    9.6774    0.8487   -1.1666 H   0  0  0  0  0  0  0  0  0  0  0  0
  1  2  2  0
  2  3  1  0
  4  2  1  0
  5  4  1  0
  3  6  1  0
  7  3  1  0
  6  8  1  0
  6  9  1  0
 10  7  2  0
  7 11  1  0
  8 12  2  0
  8 13  1  0
  9 14  2  0
 15  9  1  0
 12 10  1  0
 12 16  1  0
 13 17  2  0
 13 18  1  0
 14 19  1  0
 20 15  2  0
 18 21  1  0
 19 22  2  0
 22 20  1  0
 20 23  1  0
 21 24  1  0
 21 25  1  0
 21 26  1  0
 23 27  2  0
 23 28  1  0
 26 29  1  0
 29 30  1  0
 29 31  1  0
 31 32  1  0
 32 33  1  0
 33 34  1  0
 33 35  1  0
 34 36  2  0
 37 34  1  0
 35 38  2  0
 39 35  1  0
 36 40  1  0
 41 37  2  0
 38 42  1  0
 43 39  2  0
 40 44  2  0
 44 41  1  0
 42 45  2  0
 45 43  1  0
  3 46  1  0
  5 47  1  0
  5 48  1  0
  5 49  1  0
  6 50  1  0
 11 51  1  0
 11 52  1  0
 11 53  1  0
 14 54  1  0
 15 55  1  0
 16 56  1  0
 16 57  1  0
 16 58  1  0
 19 59  1  0
 22 60  1  0
 24 61  1  0
 24 62  1  0
 24 63  1  0
 25 64  1  0
 25 65  1  0
 25 66  1  0
 26 67  1  0
 26 68  1  0
 30 69  1  0
 30 70  1  0
 30 71  1  0
 31 72  1  0
 31 73  1  0
 32 74  1  0
 32 75  1  0
 33 76  1  0
 36 77  1  0
 37 78  1  0
 38 79  1  0
 39 80  1  0
 40 81  1  0
 41 82  1  0
 42 83  1  0
 43 84  1  0
 44 85  1  0
 45 86  1  0
M  CHG  2  23   1  28  -1
M  END
> <ID>
HT1185

> <Class>
0.0

> <Clusters>
178

> <Fold>
4

$$$$