
     RDKit          3D

 14 13  0  0  0  0  0  0  0  0999 V2000
   -0.0011    0.4578   -1.4024 N   0  0  0  0  0  0  0  0  0  0  0  0
    0.1917    0.5690    0.0455 C   0  0  1  0  0  0  0  0  0  0  0  0
   -1.1380    0.3429    0.7878 C   0  0  0  0  0  0  0  0  0  0  0  0
   -1.8329   -1.3177    0.4802 S   0  0  0  0  0  0  0  0  0  0  0  0
    1.2424   -0.4012    0.5209 C   0  0  0  0  0  0  0  0  0  0  0  0
    1.6504   -0.3475    1.7122 O   0  0  0  0  0  0  0  0  0  0  0  0
    1.7685   -1.3570   -0.3448 O   0  0  0  0  0  0  0  0  0  0  0  0
    0.8953    0.7203   -1.8743 H   0  0  0  0  0  0  0  0  0  0  0  0
   -0.6998    1.1780   -1.6986 H   0  0  0  0  0  0  0  0  0  0  0  0
    0.5472    1.5983    0.2794 H   0  0  0  0  0  0  0  0  0  0  0  0
   -0.9812    0.4627    1.8812 H   0  0  0  0  0  0  0  0  0  0  0  0
   -1.8800    1.1075    0.4728 H   0  0  0  0  0  0  0  0  0  0  0  0
   -2.2366   -1.0016   -0.8308 H   0  0  0  0  0  0  0  0  0  0  0  0
    2.4742   -2.0116   -0.0293 H   0  0  0  0  0  0  0  0  0  0  0  0
  1  2  1  0
  2  3  1  0
  3  4  1  0
  2  5  1  0
  5  6  2  0
  5  7  1  0
  1  8  1  0
  1  9  1  0
  2 10  1  6
  3 11  1  0
  3 12  1  0
  4 13  1  0
  7 14  1  0
M  END
> <ID>
HT1180

> <Class>
0.0

> <Clusters>
148

> <Fold>
4

$$$$