
     RDKit          3D

 83 87  0  0  0  0  0  0  0  0999 V2000
   -7.1680   -1.0445   -2.3205 O   0  0  0  0  0  0  0  0  0  0  0  0
   -7.0038   -1.2157   -1.0809 C   0  0  0  0  0  0  0  0  0  0  0  0
   -5.7414   -1.8774   -0.5813 C   0  0  0  0  0  0  0  0  0  0  0  0
   -7.9403   -0.7179   -0.1686 O   0  0  0  0  0  0  0  0  0  0  0  0
   -9.0912    0.0143   -0.5702 C   0  0  0  0  0  0  0  0  0  0  0  0
   -4.6308   -0.8241   -0.2980 C   0  0  0  0  0  0  0  0  0  0  0  0
   -5.9705   -2.7868    0.6091 C   0  0  0  0  0  0  0  0  0  0  0  0
   -3.4678   -1.3923    0.4991 C   0  0  0  0  0  0  0  0  0  0  0  0
   -5.1447    0.4369    0.3869 C   0  0  0  0  0  0  0  0  0  0  0  0
   -4.9845   -3.0506    1.4122 N   0  0  0  0  0  0  0  0  0  0  0  0
   -7.2405   -3.5702    0.7804 C   0  0  0  0  0  0  0  0  0  0  0  0
   -3.6796   -2.4568    1.3174 C   0  0  0  0  0  0  0  0  0  0  0  0
   -2.1689   -0.6650    0.4111 C   0  0  0  0  0  0  0  0  0  0  0  0
   -5.6563    0.3987    1.6968 C   0  0  0  0  0  0  0  0  0  0  0  0
   -5.1118    1.6670   -0.2957 C   0  0  0  0  0  0  0  0  0  0  0  0
   -2.6009   -3.0643    2.1685 C   0  0  0  0  0  0  0  0  0  0  0  0
   -1.3043   -0.7588    1.3246 O   0  0  0  0  0  0  0  0  0  0  0  0
   -1.9364    0.1832   -0.6791 O   0  0  0  0  0  0  0  0  0  0  0  0
   -6.1302    1.5616    2.3043 C   0  0  0  0  0  0  0  0  0  0  0  0
   -5.5878    2.8431    0.3102 C   0  0  0  0  0  0  0  0  0  0  0  0
   -0.7422    0.9444   -0.8436 C   0  0  0  0  0  0  0  0  0  0  0  0
   -6.0995    2.7770    1.6183 C   0  0  0  0  0  0  0  0  0  0  0  0
   -5.5505    4.0944   -0.4007 N   0  0  0  0  0  0  0  0  0  0  0  0
    0.4136    0.0414   -1.2966 C   0  0  0  0  0  0  0  0  0  0  0  0
   -5.9684    5.1431    0.1328 O   0  0  0  0  0  0  0  0  0  0  0  0
   -5.0599    4.1555   -1.6855 O   0  0  0  0  0  0  0  0  0  0  0  0
    1.6337    0.8299   -1.5809 N   0  0  0  0  0  0  0  0  0  0  0  0
    2.6403    0.0241   -2.3141 C   0  0  0  0  0  0  0  0  0  0  0  0
    2.1791    1.4536   -0.3484 C   0  0  0  0  0  0  0  0  0  0  0  0
    3.6511   -0.6459   -1.3662 C   0  0  0  0  0  0  0  0  0  0  0  0
    3.6988    1.6375   -0.4170 C   0  0  0  0  0  0  0  0  0  0  0  0
    4.3941    0.3292   -0.5152 N   0  0  0  0  0  0  0  0  0  0  0  0
    5.8142    0.4881   -0.9399 C   0  0  0  0  0  0  0  0  0  0  0  0
    6.5613    1.5074   -0.0911 C   0  0  0  0  0  0  0  0  0  0  0  0
    6.5825   -0.8235   -0.8723 C   0  0  0  0  0  0  0  0  0  0  0  0
    7.2694    2.5552   -0.7078 C   0  0  0  0  0  0  0  0  0  0  0  0
    6.5603    1.4224    1.3141 C   0  0  0  0  0  0  0  0  0  0  0  0
    7.5354   -1.1255   -1.8619 C   0  0  0  0  0  0  0  0  0  0  0  0
    6.3807   -1.7377    0.1801 C   0  0  0  0  0  0  0  0  0  0  0  0
    7.9631    3.4914    0.0641 C   0  0  0  0  0  0  0  0  0  0  0  0
    7.2550    2.3622    2.0822 C   0  0  0  0  0  0  0  0  0  0  0  0
    8.2623   -2.3181   -1.8048 C   0  0  0  0  0  0  0  0  0  0  0  0
    7.1110   -2.9283    0.2330 C   0  0  0  0  0  0  0  0  0  0  0  0
    7.9559    3.3952    1.4573 C   0  0  0  0  0  0  0  0  0  0  0  0
    8.0507   -3.2181   -0.7581 C   0  0  0  0  0  0  0  0  0  0  0  0
   -5.3694   -2.5410   -1.3939 H   0  0  0  0  0  0  0  0  0  0  0  0
   -9.6853    0.2797    0.3294 H   0  0  0  0  0  0  0  0  0  0  0  0
   -9.7175   -0.6022   -1.2504 H   0  0  0  0  0  0  0  0  0  0  0  0
   -8.7822    0.9502   -1.0845 H   0  0  0  0  0  0  0  0  0  0  0  0
   -4.2401   -0.5503   -1.3039 H   0  0  0  0  0  0  0  0  0  0  0  0
   -7.7859   -3.1964    1.6722 H   0  0  0  0  0  0  0  0  0  0  0  0
   -7.8998   -3.4905   -0.1081 H   0  0  0  0  0  0  0  0  0  0  0  0
   -7.0012   -4.6445    0.9283 H   0  0  0  0  0  0  0  0  0  0  0  0
   -5.6908   -0.5279    2.2519 H   0  0  0  0  0  0  0  0  0  0  0  0
   -4.7177    1.7058   -1.3033 H   0  0  0  0  0  0  0  0  0  0  0  0
   -2.3446   -2.3808    3.0052 H   0  0  0  0  0  0  0  0  0  0  0  0
   -2.9523   -4.0233    2.6042 H   0  0  0  0  0  0  0  0  0  0  0  0
   -1.7005   -3.2836    1.5561 H   0  0  0  0  0  0  0  0  0  0  0  0
   -6.5233    1.5201    3.3123 H   0  0  0  0  0  0  0  0  0  0  0  0
   -0.9226    1.7151   -1.6226 H   0  0  0  0  0  0  0  0  0  0  0  0
   -0.5013    1.4657    0.1075 H   0  0  0  0  0  0  0  0  0  0  0  0
   -6.4748    3.6654    2.1117 H   0  0  0  0  0  0  0  0  0  0  0  0
    0.0713   -0.4758   -2.2211 H   0  0  0  0  0  0  0  0  0  0  0  0
    0.6205   -0.7393   -0.5315 H   0  0  0  0  0  0  0  0  0  0  0  0
    2.1653   -0.7527   -2.9542 H   0  0  0  0  0  0  0  0  0  0  0  0
    3.1917    0.6922   -3.0105 H   0  0  0  0  0  0  0  0  0  0  0  0
    1.7105    2.4524   -0.2147 H   0  0  0  0  0  0  0  0  0  0  0  0
    1.9499    0.8445    0.5553 H   0  0  0  0  0  0  0  0  0  0  0  0
    3.1032   -1.3439   -0.6983 H   0  0  0  0  0  0  0  0  0  0  0  0
    4.3273   -1.2756   -1.9840 H   0  0  0  0  0  0  0  0  0  0  0  0
    3.9471    2.2898   -1.2845 H   0  0  0  0  0  0  0  0  0  0  0  0
    4.0161    2.1606    0.5098 H   0  0  0  0  0  0  0  0  0  0  0  0
    5.8151    0.8359   -1.9996 H   0  0  0  0  0  0  0  0  0  0  0  0
    7.2864    2.6476   -1.7868 H   0  0  0  0  0  0  0  0  0  0  0  0
    6.0128    0.6386    1.8189 H   0  0  0  0  0  0  0  0  0  0  0  0
    7.7173   -0.4364   -2.6771 H   0  0  0  0  0  0  0  0  0  0  0  0
    5.6509   -1.5376    0.9527 H   0  0  0  0  0  0  0  0  0  0  0  0
    8.5041    4.2954   -0.4198 H   0  0  0  0  0  0  0  0  0  0  0  0
    7.2415    2.2951    3.1619 H   0  0  0  0  0  0  0  0  0  0  0  0
    8.9915   -2.5440   -2.5724 H   0  0  0  0  0  0  0  0  0  0  0  0
    6.9467   -3.6284    1.0415 H   0  0  0  0  0  0  0  0  0  0  0  0
    8.4916    4.1243    2.0516 H   0  0  0  0  0  0  0  0  0  0  0  0
    8.6162   -4.1396   -0.7143 H   0  0  0  0  0  0  0  0  0  0  0  0
  1  2  2  0
  2  3  1  0
  4  2  1  0
  5  4  1  0
  3  6  1  0
  7  3  1  0
  6  8  1  0
  6  9  1  0
 10  7  2  0
  7 11  1  0
  8 12  2  0
  8 13  1  0
  9 14  2  0
 15  9  1  0
 12 10  1  0
 12 16  1  0
 13 17  2  0
 13 18  1  0
 14 19  1  0
 20 15  2  0
 18 21  1  0
 19 22  2  0
 22 20  1  0
 20 23  1  0
 21 24  1  0
 23 25  2  0
 23 26  1  0
 24 27  1  0
 27 28  1  0
 29 27  1  0
 28 30  1  0
 31 29  1  0
 30 32  1  0
 32 31  1  0
 32 33  1  0
 33 34  1  0
 33 35  1  0
 34 36  2  0
 37 34  1  0
 35 38  2  0
 39 35  1  0
 36 40  1  0
 41 37  2  0
 38 42  1  0
 43 39  2  0
 40 44  2  0
 44 41  1  0
 42 45  2  0
 45 43  1  0
  3 46  1  0
  5 47  1  0
  5 48  1  0
  5 49  1  0
  6 50  1  0
 11 51  1  0
 11 52  1  0
 11 53  1  0
 14 54  1  0
 15 55  1  0
 16 56  1  0
 16 57  1  0
 16 58  1  0
 19 59  1  0
 21 60  1  0
 21 61  1  0
 22 62  1  0
 24 63  1  0
 24 64  1  0
 28 65  1  0
 28 66  1  0
 29 67  1  0
 29 68  1  0
 30 69  1  0
 30 70  1  0
 31 71  1  0
 31 72  1  0
 33 73  1  0
 36 74  1  0
 37 75  1  0
 38 76  1  0
 39 77  1  0
 40 78  1  0
 41 79  1  0
 42 80  1  0
 43 81  1  0
 44 82  1  0
 45 83  1  0
M  CHG  2  23   1  26  -1
M  END
> <ID>
HT1268

> <Class>
0.0

> <Clusters>
178

> <Fold>
4

$$$$