
     RDKit          3D

 23 23  0  0  0  0  0  0  0  0999 V2000
   -2.9596    1.0579    0.4398 C   0  0  0  0  0  0  0  0  0  0  0  0
   -1.5495    0.7754   -0.0970 C   0  0  2  0  0  0  0  0  0  0  0  0
   -1.6140    0.1343   -1.4134 N   0  0  0  0  0  0  0  0  0  0  0  0
   -0.7621   -0.1090    0.8877 C   0  0  0  0  0  0  0  0  0  0  0  0
    0.6555   -0.3348    0.4233 C   0  0  0  0  0  0  0  0  0  0  0  0
    1.0671   -1.6035   -0.0203 C   0  0  0  0  0  0  0  0  0  0  0  0
    2.3829   -1.8081   -0.4475 C   0  0  0  0  0  0  0  0  0  0  0  0
    3.2973   -0.7514   -0.4316 C   0  0  0  0  0  0  0  0  0  0  0  0
    2.8980    0.5118    0.0129 C   0  0  0  0  0  0  0  0  0  0  0  0
    1.5832    0.7210    0.4406 C   0  0  0  0  0  0  0  0  0  0  0  0
   -3.5133    1.7097   -0.2688 H   0  0  0  0  0  0  0  0  0  0  0  0
   -3.5259    0.1113    0.5733 H   0  0  0  0  0  0  0  0  0  0  0  0
   -2.8989    1.5813    1.4178 H   0  0  0  0  0  0  0  0  0  0  0  0
   -1.0252    1.7514   -0.2016 H   0  0  0  0  0  0  0  0  0  0  0  0
   -2.2032   -0.7284   -1.3514 H   0  0  0  0  0  0  0  0  0  0  0  0
   -2.0832    0.7871   -2.0827 H   0  0  0  0  0  0  0  0  0  0  0  0
   -1.2899   -1.0811    1.0088 H   0  0  0  0  0  0  0  0  0  0  0  0
   -0.7350    0.3730    1.8896 H   0  0  0  0  0  0  0  0  0  0  0  0
    0.3701   -2.4321   -0.0415 H   0  0  0  0  0  0  0  0  0  0  0  0
    2.6937   -2.7862   -0.7912 H   0  0  0  0  0  0  0  0  0  0  0  0
    4.3153   -0.9118   -0.7624 H   0  0  0  0  0  0  0  0  0  0  0  0
    3.6077    1.3288    0.0275 H   0  0  0  0  0  0  0  0  0  0  0  0
    1.2889    1.7035    0.7882 H   0  0  0  0  0  0  0  0  0  0  0  0
  2  1  1  0
  2  3  1  0
  2  4  1  0
  4  5  1  0
  5  6  2  0
  6  7  1  0
  7  8  2  0
  8  9  1  0
  9 10  2  0
 10  5  1  0
  1 11  1  0
  1 12  1  0
  1 13  1  0
  2 14  1  6
  3 15  1  0
  3 16  1  0
  4 17  1  0
  4 18  1  0
  6 19  1  0
  7 20  1  0
  8 21  1  0
  9 22  1  0
 10 23  1  0
M  END
> <ID>
HT0151

> <Class>
0.0

> <Clusters>
164

> <Fold>
4

$$$$