
     RDKit          3D

 25 25  0  0  0  0  0  0  0  0999 V2000
   -3.1680   -1.3415    1.0931 N   0  0  0  0  0  0  0  0  0  0  0  0
   -1.8849   -0.6579    0.9214 C   0  0  1  0  0  0  0  0  0  0  0  0
   -1.2877   -0.9497   -0.4725 C   0  0  0  0  0  0  0  0  0  0  0  0
    0.0881   -0.3492   -0.6342 C   0  0  0  0  0  0  0  0  0  0  0  0
    0.2935    0.7337   -1.5003 C   0  0  0  0  0  0  0  0  0  0  0  0
    1.5667    1.2877   -1.6449 C   0  0  0  0  0  0  0  0  0  0  0  0
    2.6558    0.7710   -0.9338 C   0  0  0  0  0  0  0  0  0  0  0  0
    3.9023    1.3715   -1.1221 O   0  0  0  0  0  0  0  0  0  0  0  0
    2.4589   -0.3264   -0.0618 C   0  0  0  0  0  0  0  0  0  0  0  0
    3.4965   -0.8980    0.6774 O   0  0  0  0  0  0  0  0  0  0  0  0
    1.1777   -0.8748    0.0770 C   0  0  0  0  0  0  0  0  0  0  0  0
   -2.0763    0.8187    1.1304 C   0  0  0  0  0  0  0  0  0  0  0  0
   -1.4636    1.4091    2.0600 O   0  0  0  0  0  0  0  0  0  0  0  0
   -2.9269    1.5378    0.2953 O   0  0  0  0  0  0  0  0  0  0  0  0
   -3.0042   -2.3741    1.0562 H   0  0  0  0  0  0  0  0  0  0  0  0
   -3.8032   -1.0995    0.2972 H   0  0  0  0  0  0  0  0  0  0  0  0
   -1.1858   -1.0409    1.6988 H   0  0  0  0  0  0  0  0  0  0  0  0
   -1.2134   -2.0487   -0.6234 H   0  0  0  0  0  0  0  0  0  0  0  0
   -1.9753   -0.5643   -1.2580 H   0  0  0  0  0  0  0  0  0  0  0  0
   -0.5327    1.1558   -2.0590 H   0  0  0  0  0  0  0  0  0  0  0  0
    1.7089    2.1268   -2.3144 H   0  0  0  0  0  0  0  0  0  0  0  0
    4.7476    1.0756   -0.6558 H   0  0  0  0  0  0  0  0  0  0  0  0
    4.4540   -0.5787    0.6468 H   0  0  0  0  0  0  0  0  0  0  0  0
    1.0324   -1.7178    0.7419 H   0  0  0  0  0  0  0  0  0  0  0  0
   -3.0603    2.5338    0.4229 H   0  0  0  0  0  0  0  0  0  0  0  0
  2  1  1  0
  2  3  1  0
  3  4  1  0
  4  5  2  0
  5  6  1  0
  6  7  2  0
  7  8  1  0
  7  9  1  0
  9 10  1  0
  9 11  2  0
 11  4  1  0
  2 12  1  0
 12 13  2  0
 12 14  1  0
  1 15  1  0
  1 16  1  0
  2 17  1  1
  3 18  1  0
  3 19  1  0
  5 20  1  0
  6 21  1  0
  8 22  1  0
 10 23  1  0
 11 24  1  0
 14 25  1  0
M  END
> <ID>
HT1196

> <Class>
0.0

> <Clusters>
146

> <Fold>
4

$$$$