
     RDKit          3D

 29 29  0  0  0  0  0  0  0  0999 V2000
   -2.6073   -1.3549    0.8913 C   0  0  0  0  0  0  0  0  0  0  0  0
   -1.2989   -1.1029    0.2729 N   0  0  0  0  0  0  0  0  0  0  0  0
   -1.2247    0.1076   -0.5881 C   0  0  0  0  0  0  0  0  0  0  0  0
   -2.3639    0.1154   -1.6366 C   0  0  0  0  0  0  0  0  0  0  0  0
   -1.3100    1.4053    0.2539 C   0  0  0  0  0  0  0  0  0  0  0  0
    0.1193    0.0738   -1.3757 C   0  0  0  0  0  0  0  0  0  0  0  0
    1.3519    0.0562   -0.4995 C   0  0  0  0  0  0  0  0  0  0  0  0
    1.9131   -1.1650   -0.0868 C   0  0  0  0  0  0  0  0  0  0  0  0
    3.0633   -1.1802    0.7081 C   0  0  0  0  0  0  0  0  0  0  0  0
    3.6687    0.0207    1.0873 C   0  0  0  0  0  0  0  0  0  0  0  0
    3.1274    1.2389    0.6685 C   0  0  0  0  0  0  0  0  0  0  0  0
    1.9773    1.2587   -0.1265 C   0  0  0  0  0  0  0  0  0  0  0  0
   -3.3469   -1.6705    0.1270 H   0  0  0  0  0  0  0  0  0  0  0  0
   -2.9776   -0.4695    1.4470 H   0  0  0  0  0  0  0  0  0  0  0  0
   -2.5137   -2.1932    1.6141 H   0  0  0  0  0  0  0  0  0  0  0  0
   -0.6078   -1.0131    1.0541 H   0  0  0  0  0  0  0  0  0  0  0  0
   -2.3901   -0.8494   -2.1874 H   0  0  0  0  0  0  0  0  0  0  0  0
   -2.2169    0.9359   -2.3721 H   0  0  0  0  0  0  0  0  0  0  0  0
   -3.3539    0.2799   -1.1610 H   0  0  0  0  0  0  0  0  0  0  0  0
   -0.5942    1.3774    1.1022 H   0  0  0  0  0  0  0  0  0  0  0  0
   -1.0774    2.2921   -0.3741 H   0  0  0  0  0  0  0  0  0  0  0  0
   -2.3280    1.5542    0.6690 H   0  0  0  0  0  0  0  0  0  0  0  0
    0.1357   -0.8249   -2.0322 H   0  0  0  0  0  0  0  0  0  0  0  0
    0.1794    0.9482   -2.0620 H   0  0  0  0  0  0  0  0  0  0  0  0
    1.4563   -2.1035   -0.3757 H   0  0  0  0  0  0  0  0  0  0  0  0
    3.4864   -2.1234    1.0286 H   0  0  0  0  0  0  0  0  0  0  0  0
    4.5593    0.0072    1.7021 H   0  0  0  0  0  0  0  0  0  0  0  0
    3.6005    2.1684    0.9579 H   0  0  0  0  0  0  0  0  0  0  0  0
    1.5727    2.2103   -0.4479 H   0  0  0  0  0  0  0  0  0  0  0  0
  1  2  1  0
  2  3  1  0
  3  4  1  0
  3  5  1  0
  3  6  1  0
  6  7  1  0
  7  8  2  0
  8  9  1  0
  9 10  2  0
 10 11  1  0
 11 12  2  0
 12  7  1  0
  1 13  1  0
  1 14  1  0
  1 15  1  0
  2 16  1  0
  4 17  1  0
  4 18  1  0
  4 19  1  0
  5 20  1  0
  5 21  1  0
  5 22  1  0
  6 23  1  0
  6 24  1  0
  8 25  1  0
  9 26  1  0
 10 27  1  0
 11 28  1  0
 12 29  1  0
M  END
> <ID>
HT1307

> <Class>
0.0

> <Clusters>
164

> <Fold>
4

$$$$