
     RDKit          3D

 20 19  0  0  0  0  0  0  0  0999 V2000
    3.3048    0.0543    0.5461 C   0  0  0  0  0  0  0  0  0  0  0  0
    2.0771   -0.7373    1.6363 S   0  0  0  0  0  0  0  0  0  0  0  0
    0.7780   -0.9197    0.3627 C   0  0  0  0  0  0  0  0  0  0  0  0
   -0.1090    0.3306    0.3154 C   0  0  0  0  0  0  0  0  0  0  0  0
   -1.2010    0.2318   -0.7690 C   0  0  2  0  0  0  0  0  0  0  0  0
   -1.9222    1.5013   -0.8677 N   0  0  0  0  0  0  0  0  0  0  0  0
   -2.1766   -0.8751   -0.4589 C   0  0  0  0  0  0  0  0  0  0  0  0
   -2.2671   -1.8642   -1.2330 O   0  0  0  0  0  0  0  0  0  0  0  0
   -2.9889   -0.8184    0.6710 O   0  0  0  0  0  0  0  0  0  0  0  0
    4.2146    0.2853    1.1370 H   0  0  0  0  0  0  0  0  0  0  0  0
    2.9028    0.9995    0.1283 H   0  0  0  0  0  0  0  0  0  0  0  0
    3.5820   -0.6338   -0.2794 H   0  0  0  0  0  0  0  0  0  0  0  0
    0.1623   -1.8010    0.6399 H   0  0  0  0  0  0  0  0  0  0  0  0
    1.2272   -1.1178   -0.6341 H   0  0  0  0  0  0  0  0  0  0  0  0
    0.5305    1.2120    0.0963 H   0  0  0  0  0  0  0  0  0  0  0  0
   -0.5731    0.4945    1.3123 H   0  0  0  0  0  0  0  0  0  0  0  0
   -0.7094    0.0229   -1.7477 H   0  0  0  0  0  0  0  0  0  0  0  0
   -1.2486    2.2419   -1.1715 H   0  0  0  0  0  0  0  0  0  0  0  0
   -2.6254    1.4217   -1.6387 H   0  0  0  0  0  0  0  0  0  0  0  0
   -2.9581   -0.0284    1.3038 H   0  0  0  0  0  0  0  0  0  0  0  0
  1  2  1  0
  2  3  1  0
  3  4  1  0
  4  5  1  0
  5  6  1  0
  5  7  1  0
  7  8  2  0
  7  9  1  0
  1 10  1  0
  1 11  1  0
  1 12  1  0
  3 13  1  0
  3 14  1  0
  4 15  1  0
  4 16  1  0
  5 17  1  6
  6 18  1  0
  6 19  1  0
  9 20  1  0
M  END
> <ID>
HT1225

> <Class>
0.0

> <Clusters>
148

> <Fold>
4

$$$$