
     RDKit          3D

 30 31  0  0  0  0  0  0  0  0999 V2000
   -3.3501   -2.2917    1.1956 N   0  0  0  0  0  0  0  0  0  0  0  0
   -2.6926   -1.1651    0.6034 C   0  0  0  0  0  0  0  0  0  0  0  0
   -1.2956   -1.1026    0.6058 C   0  0  0  0  0  0  0  0  0  0  0  0
   -0.6617    0.0033    0.0231 C   0  0  0  0  0  0  0  0  0  0  0  0
   -1.4284    0.9788   -0.5331 N   0  0  0  0  0  0  0  0  0  0  0  0
   -2.7853    0.9136   -0.5337 C   0  0  0  0  0  0  0  0  0  0  0  0
   -3.5342    1.9733   -1.1342 N   0  0  0  0  0  0  0  0  0  0  0  0
   -3.4166   -0.1556    0.0351 N   0  0  0  0  0  0  0  0  0  0  0  0
   -4.7928   -0.2173    0.0330 O   0  0  0  0  0  0  0  0  0  0  0  0
    0.7784    0.1202   -0.0028 N   0  0  0  0  0  0  0  0  0  0  0  0
    1.4187    1.0291   -0.9667 C   0  0  0  0  0  0  0  0  0  0  0  0
    2.7680    0.4588   -1.4147 C   0  0  0  0  0  0  0  0  0  0  0  0
    3.7090    0.1496   -0.2323 C   0  0  0  0  0  0  0  0  0  0  0  0
    2.9914    0.0663    1.1245 C   0  0  0  0  0  0  0  0  0  0  0  0
    1.6044   -0.5742    1.0010 C   0  0  0  0  0  0  0  0  0  0  0  0
   -2.7971   -3.0642    1.6298 H   0  0  0  0  0  0  0  0  0  0  0  0
   -4.3909   -2.3686    1.2085 H   0  0  0  0  0  0  0  0  0  0  0  0
   -0.7226   -1.9097    1.0429 H   0  0  0  0  0  0  0  0  0  0  0  0
   -4.5776    1.9613   -1.1554 H   0  0  0  0  0  0  0  0  0  0  0  0
   -3.0380    2.7845   -1.5655 H   0  0  0  0  0  0  0  0  0  0  0  0
    0.7819    1.1553   -1.8694 H   0  0  0  0  0  0  0  0  0  0  0  0
    1.5622    2.0267   -0.4980 H   0  0  0  0  0  0  0  0  0  0  0  0
    3.2599    1.1741   -2.1089 H   0  0  0  0  0  0  0  0  0  0  0  0
    2.5785   -0.4792   -1.9820 H   0  0  0  0  0  0  0  0  0  0  0  0
    4.2278   -0.8142   -0.4289 H   0  0  0  0  0  0  0  0  0  0  0  0
    4.4929    0.9355   -0.1685 H   0  0  0  0  0  0  0  0  0  0  0  0
    2.8757    1.0916    1.5399 H   0  0  0  0  0  0  0  0  0  0  0  0
    3.6107   -0.5179    1.8390 H   0  0  0  0  0  0  0  0  0  0  0  0
    1.7110   -1.6430    0.7155 H   0  0  0  0  0  0  0  0  0  0  0  0
    1.1131   -0.5188    1.9970 H   0  0  0  0  0  0  0  0  0  0  0  0
  1  2  1  0
  2  3  2  0
  3  4  1  0
  4  5  2  0
  5  6  1  0
  6  7  1  0
  6  8  2  0
  8  2  1  0
  8  9  1  0
  4 10  1  0
 10 11  1  0
 11 12  1  0
 12 13  1  0
 13 14  1  0
 14 15  1  0
 15 10  1  0
  1 16  1  0
  1 17  1  0
  3 18  1  0
  7 19  1  0
  7 20  1  0
 11 21  1  0
 11 22  1  0
 12 23  1  0
 12 24  1  0
 13 25  1  0
 13 26  1  0
 14 27  1  0
 14 28  1  0
 15 29  1  0
 15 30  1  0
M  CHG  2   8   1   9  -1
M  END
> <ID>
HT1408

> <Class>
0.0

> <Clusters>
230

> <Fold>
4

$$$$