
     RDKit          3D

 32 33  0  0  0  0  0  0  0  0999 V2000
    6.8124   -1.2490    0.4537 C   0  0  0  0  0  0  0  0  0  0  0  0
    5.6690   -0.3930    0.9744 C   0  0  0  0  0  0  0  0  0  0  0  0
    4.4547   -0.7810    0.3399 O   0  0  0  0  0  0  0  0  0  0  0  0
    3.2293   -0.1692    0.6183 C   0  0  0  0  0  0  0  0  0  0  0  0
    3.1621    0.7679    1.4609 O   0  0  0  0  0  0  0  0  0  0  0  0
    2.0541   -0.6199   -0.0646 N   0  0  0  0  0  0  0  0  0  0  0  0
    0.7555   -0.0567    0.1523 C   0  0  0  0  0  0  0  0  0  0  0  0
    0.4741    0.9232    0.9805 O   0  0  0  0  0  0  0  0  0  0  0  0
   -0.8001    1.1843    0.9203 N   0  0  0  0  0  0  0  0  0  0  0  0
   -1.3656    0.3653    0.0441 N   0  0  0  0  0  0  0  0  0  0  0  0
   -0.4117   -0.4387   -0.4683 C   0  0  0  0  0  0  0  0  0  0  0  0
   -2.7410    0.3766   -0.2811 N   0  0  0  0  0  0  0  0  0  0  0  0
   -3.5396    1.5680    0.0331 C   0  0  0  0  0  0  0  0  0  0  0  0
   -5.0256    1.2136    0.1274 C   0  0  0  0  0  0  0  0  0  0  0  0
   -5.4415    0.4932   -1.0146 O   0  0  0  0  0  0  0  0  0  0  0  0
   -4.7980   -0.7646   -1.0350 C   0  0  0  0  0  0  0  0  0  0  0  0
   -3.2868   -0.6041   -1.2294 C   0  0  0  0  0  0  0  0  0  0  0  0
    7.7607   -0.9484    0.9470 H   0  0  0  0  0  0  0  0  0  0  0  0
    6.9178   -1.1143   -0.6437 H   0  0  0  0  0  0  0  0  0  0  0  0
    6.6151   -2.3198    0.6728 H   0  0  0  0  0  0  0  0  0  0  0  0
    5.8818    0.6760    0.7562 H   0  0  0  0  0  0  0  0  0  0  0  0
    5.5788   -0.5305    2.0739 H   0  0  0  0  0  0  0  0  0  0  0  0
    2.1509   -1.3983   -0.7546 H   0  0  0  0  0  0  0  0  0  0  0  0
   -0.5417   -1.2043   -1.2210 H   0  0  0  0  0  0  0  0  0  0  0  0
   -3.2216    2.0063    1.0030 H   0  0  0  0  0  0  0  0  0  0  0  0
   -3.3878    2.3265   -0.7648 H   0  0  0  0  0  0  0  0  0  0  0  0
   -5.2333    0.6458    1.0636 H   0  0  0  0  0  0  0  0  0  0  0  0
   -5.6125    2.1546    0.1841 H   0  0  0  0  0  0  0  0  0  0  0  0
   -5.0126   -1.3433   -0.1071 H   0  0  0  0  0  0  0  0  0  0  0  0
   -5.2043   -1.3550   -1.8831 H   0  0  0  0  0  0  0  0  0  0  0  0
   -3.0758   -0.2652   -2.2665 H   0  0  0  0  0  0  0  0  0  0  0  0
   -2.8167   -1.5976   -1.0718 H   0  0  0  0  0  0  0  0  0  0  0  0
  1  2  1  0
  2  3  1  0
  3  4  1  0
  4  5  2  0
  4  6  1  0
  6  7  1  0
  7  8  1  0
  8  9  1  0
  9 10  2  0
 10 11  1  0
 11  7  2  0
 10 12  1  0
 12 13  1  0
 13 14  1  0
 14 15  1  0
 15 16  1  0
 16 17  1  0
 17 12  1  0
  1 18  1  0
  1 19  1  0
  1 20  1  0
  2 21  1  0
  2 22  1  0
  6 23  1  0
 11 24  1  0
 13 25  1  0
 13 26  1  0
 14 27  1  0
 14 28  1  0
 16 29  1  0
 16 30  1  0
 17 31  1  0
 17 32  1  0
M  CHG  1  10   1
M  END
> <ID>
HT1426

> <Class>
0.0

> <Clusters>
248

> <Fold>
4

$$$$