
     RDKit          3D

 48 50  0  0  0  0  0  0  0  0999 V2000
    2.5650   -3.0367   -0.5968 O   0  0  0  0  0  0  0  0  0  0  0  0
    2.8349   -2.1962    0.4799 C   0  0  0  0  0  0  0  0  0  0  0  0
    3.6305   -2.5705    1.3828 O   0  0  0  0  0  0  0  0  0  0  0  0
    2.1883   -0.8378    0.5603 C   0  0  0  0  0  0  0  0  0  0  0  0
    0.6510   -0.9993    0.5744 C   0  0  0  0  0  0  0  0  0  0  0  0
   -0.1008    0.2479    0.9804 C   0  0  0  0  0  0  0  0  0  0  0  0
    0.5240    1.2586    1.4051 O   0  0  0  0  0  0  0  0  0  0  0  0
   -1.5359    0.2886    0.9054 N   0  0  0  0  0  0  0  0  0  0  0  0
   -2.3184    1.4726    1.2352 C   0  0  0  0  0  0  0  0  0  0  0  0
   -3.7378    1.1612    0.7468 C   0  0  0  0  0  0  0  0  0  0  0  0
   -3.9406    1.7261   -0.6791 C   0  0  0  0  0  0  0  0  0  0  0  0
   -5.1596    1.1155   -1.3672 C   0  0  0  0  0  0  0  0  0  0  0  0
   -4.9945   -0.3993   -1.4757 C   0  0  0  0  0  0  0  0  0  0  0  0
   -4.8836   -1.0281   -0.0850 C   0  0  0  0  0  0  0  0  0  0  0  0
   -3.7949   -0.3786    0.7947 C   0  0  0  0  0  0  0  0  0  0  0  0
   -2.3688   -0.8307    0.4882 C   0  0  0  0  0  0  0  0  0  0  0  0
    2.6516    0.0411   -0.6244 C   0  0  0  0  0  0  0  0  0  0  0  0
    4.1337    0.3208   -0.5706 C   0  0  0  0  0  0  0  0  0  0  0  0
    5.0030   -0.2545   -1.5134 C   0  0  0  0  0  0  0  0  0  0  0  0
    6.3756    0.0070   -1.4576 C   0  0  0  0  0  0  0  0  0  0  0  0
    6.8894    0.8462   -0.4653 C   0  0  0  0  0  0  0  0  0  0  0  0
    6.0313    1.4265    0.4726 C   0  0  0  0  0  0  0  0  0  0  0  0
    4.6583    1.1674    0.4210 C   0  0  0  0  0  0  0  0  0  0  0  0
    2.9990   -3.9494   -0.6649 H   0  0  0  0  0  0  0  0  0  0  0  0
    2.4995   -0.3617    1.5175 H   0  0  0  0  0  0  0  0  0  0  0  0
    0.3737   -1.8021    1.2921 H   0  0  0  0  0  0  0  0  0  0  0  0
    0.3074   -1.3153   -0.4347 H   0  0  0  0  0  0  0  0  0  0  0  0
   -1.8940    2.3767    0.7447 H   0  0  0  0  0  0  0  0  0  0  0  0
   -2.3128    1.6205    2.3370 H   0  0  0  0  0  0  0  0  0  0  0  0
   -4.4979    1.6003    1.4308 H   0  0  0  0  0  0  0  0  0  0  0  0
   -3.0428    1.5285   -1.3077 H   0  0  0  0  0  0  0  0  0  0  0  0
   -4.0723    2.8283   -0.6198 H   0  0  0  0  0  0  0  0  0  0  0  0
   -5.2586    1.5465   -2.3868 H   0  0  0  0  0  0  0  0  0  0  0  0
   -6.0821    1.3615   -0.7964 H   0  0  0  0  0  0  0  0  0  0  0  0
   -4.0934   -0.6424   -2.0795 H   0  0  0  0  0  0  0  0  0  0  0  0
   -5.8772   -0.8263   -1.9989 H   0  0  0  0  0  0  0  0  0  0  0  0
   -5.8643   -0.9187    0.4286 H   0  0  0  0  0  0  0  0  0  0  0  0
   -4.6854   -2.1173   -0.1856 H   0  0  0  0  0  0  0  0  0  0  0  0
   -4.0085   -0.6705    1.8490 H   0  0  0  0  0  0  0  0  0  0  0  0
   -2.2205   -1.0175   -0.5968 H   0  0  0  0  0  0  0  0  0  0  0  0
   -2.1201   -1.7450    1.0693 H   0  0  0  0  0  0  0  0  0  0  0  0
    2.1157    1.0137   -0.6197 H   0  0  0  0  0  0  0  0  0  0  0  0
    2.3850   -0.4593   -1.5820 H   0  0  0  0  0  0  0  0  0  0  0  0
    4.6209   -0.9101   -2.2860 H   0  0  0  0  0  0  0  0  0  0  0  0
    7.0412   -0.4415   -2.1838 H   0  0  0  0  0  0  0  0  0  0  0  0
    7.9520    1.0475   -0.4238 H   0  0  0  0  0  0  0  0  0  0  0  0
    6.4300    2.0783    1.2393 H   0  0  0  0  0  0  0  0  0  0  0  0
    4.0037    1.6274    1.1509 H   0  0  0  0  0  0  0  0  0  0  0  0
  1  2  1  0
  2  3  2  0
  2  4  1  0
  4  5  1  0
  5  6  1  0
  6  7  2  0
  6  8  1  0
  8  9  1  0
  9 10  1  0
 10 11  1  0
 11 12  1  0
 12 13  1  0
 13 14  1  0
 14 15  1  0
 15 10  1  0
 15 16  1  0
 16  8  1  0
  4 17  1  0
 17 18  1  0
 18 19  2  0
 19 20  1  0
 20 21  2  0
 21 22  1  0
 22 23  2  0
 23 18  1  0
  1 24  1  0
  4 25  1  0
  5 26  1  0
  5 27  1  0
  9 28  1  0
  9 29  1  0
 10 30  1  0
 11 31  1  0
 11 32  1  0
 12 33  1  0
 12 34  1  0
 13 35  1  0
 13 36  1  0
 14 37  1  0
 14 38  1  0
 15 39  1  0
 16 40  1  0
 16 41  1  0
 17 42  1  0
 17 43  1  0
 19 44  1  0
 20 45  1  0
 21 46  1  0
 22 47  1  0
 23 48  1  0
M  END
> <ID>
HT1413

> <Class>
0.0

> <Clusters>
233

> <Fold>
4

$$$$