
     RDKit          3D

 74 73  0  0  0  0  0  0  0  0999 V2000
    8.5181    3.6055   -0.5942 C   0  0  0  0  0  0  0  0  0  0  0  0
    8.2755    2.2687    0.1018 C   0  0  0  0  0  0  0  0  0  0  0  0
    6.8529    1.7556   -0.1669 C   0  0  0  0  0  0  0  0  0  0  0  0
    6.4966    0.5180    0.6719 C   0  0  0  0  0  0  0  0  0  0  0  0
    7.3231   -0.7220    0.2894 C   0  0  0  0  0  0  0  0  0  0  0  0
    6.8285   -1.9939    1.0115 C   0  0  0  0  0  0  0  0  0  0  0  0
    6.0459   -2.9581    0.1002 C   0  0  0  0  0  0  0  0  0  0  0  0
    4.7261   -2.3961   -0.4565 C   0  0  0  0  0  0  0  0  0  0  0  0
    3.6490   -2.2173    0.6291 C   0  0  0  0  0  0  0  0  0  0  0  0
    2.3355   -1.6469    0.0677 C   0  0  0  0  0  0  0  0  0  0  0  0
    1.5340   -2.6863   -0.7350 C   0  0  0  0  0  0  0  0  0  0  0  0
    0.1928   -2.1242   -1.2539 C   0  0  0  0  0  0  0  0  0  0  0  0
   -1.0315   -2.6049   -0.4523 C   0  0  0  0  0  0  0  0  0  0  0  0
   -1.1285   -2.0501    0.9813 C   0  0  0  0  0  0  0  0  0  0  0  0
   -1.2456   -0.5173    1.0805 C   0  0  0  0  0  0  0  0  0  0  0  0
   -2.4757    0.0415    0.3603 C   0  0  0  0  0  0  0  0  0  0  0  0
   -2.6190    1.4032    0.6874 O   0  0  0  0  0  0  0  0  0  0  0  0
   -3.8847    2.0461   -0.2567 P   0  0  0  0  0  0  0  0  0  0  0  0
   -4.1265    3.4769    0.1686 O   0  0  0  0  0  0  0  0  0  0  0  0
   -3.4235    2.0164   -1.8898 O   0  0  0  0  0  0  0  0  0  0  0  0
   -5.3085    1.1401    0.0077 O   0  0  0  0  0  0  0  0  0  0  0  0
   -6.1441    1.2681   -1.1199 C   0  0  0  0  0  0  0  0  0  0  0  0
   -7.5026    0.5842   -0.8535 C   0  0  0  0  0  0  0  0  0  0  0  0
   -8.4718    1.3594   -0.0156 N   0  0  0  0  0  0  0  0  0  0  0  0
   -9.6590    0.4996    0.2180 C   0  0  0  0  0  0  0  0  0  0  0  0
   -7.8924    1.7181    1.3007 C   0  0  0  0  0  0  0  0  0  0  0  0
   -8.9238    2.5892   -0.7132 C   0  0  0  0  0  0  0  0  0  0  0  0
    7.8428    4.3835   -0.1798 H   0  0  0  0  0  0  0  0  0  0  0  0
    9.5686    3.9250   -0.4320 H   0  0  0  0  0  0  0  0  0  0  0  0
    8.3414    3.5096   -1.6870 H   0  0  0  0  0  0  0  0  0  0  0  0
    8.4325    2.3996    1.1945 H   0  0  0  0  0  0  0  0  0  0  0  0
    9.0181    1.5367   -0.2793 H   0  0  0  0  0  0  0  0  0  0  0  0
    6.7354    1.5206   -1.2480 H   0  0  0  0  0  0  0  0  0  0  0  0
    6.1250    2.5579    0.0851 H   0  0  0  0  0  0  0  0  0  0  0  0
    5.4179    0.3066    0.5177 H   0  0  0  0  0  0  0  0  0  0  0  0
    6.6395    0.7434    1.7526 H   0  0  0  0  0  0  0  0  0  0  0  0
    8.3786   -0.5452    0.5874 H   0  0  0  0  0  0  0  0  0  0  0  0
    7.3138   -0.8644   -0.8134 H   0  0  0  0  0  0  0  0  0  0  0  0
    6.2371   -1.7458    1.9189 H   0  0  0  0  0  0  0  0  0  0  0  0
    7.7207   -2.5493    1.3775 H   0  0  0  0  0  0  0  0  0  0  0  0
    5.8330   -3.8914    0.6656 H   0  0  0  0  0  0  0  0  0  0  0  0
    6.6969   -3.2452   -0.7539 H   0  0  0  0  0  0  0  0  0  0  0  0
    4.9066   -1.4375   -0.9864 H   0  0  0  0  0  0  0  0  0  0  0  0
    4.3602   -3.1210   -1.2137 H   0  0  0  0  0  0  0  0  0  0  0  0
    3.4528   -3.1880    1.1354 H   0  0  0  0  0  0  0  0  0  0  0  0
    4.0186   -1.5074    1.3985 H   0  0  0  0  0  0  0  0  0  0  0  0
    1.7239   -1.3001    0.9255 H   0  0  0  0  0  0  0  0  0  0  0  0
    2.5526   -0.7599   -0.5678 H   0  0  0  0  0  0  0  0  0  0  0  0
    1.3685   -3.5953   -0.1162 H   0  0  0  0  0  0  0  0  0  0  0  0
    2.1347   -2.9973   -1.6158 H   0  0  0  0  0  0  0  0  0  0  0  0
    0.0548   -2.4855   -2.2975 H   0  0  0  0  0  0  0  0  0  0  0  0
    0.2112   -1.0159   -1.3244 H   0  0  0  0  0  0  0  0  0  0  0  0
   -1.9544   -2.3451   -1.0127 H   0  0  0  0  0  0  0  0  0  0  0  0
   -1.0121   -3.7153   -0.3995 H   0  0  0  0  0  0  0  0  0  0  0  0
   -0.2495   -2.3872    1.5696 H   0  0  0  0  0  0  0  0  0  0  0  0
   -2.0197   -2.5032    1.4675 H   0  0  0  0  0  0  0  0  0  0  0  0
   -1.3168   -0.2521    2.1578 H   0  0  0  0  0  0  0  0  0  0  0  0
   -0.3303   -0.0282    0.6876 H   0  0  0  0  0  0  0  0  0  0  0  0
   -2.3262   -0.0865   -0.7353 H   0  0  0  0  0  0  0  0  0  0  0  0
   -3.3747   -0.5277    0.6887 H   0  0  0  0  0  0  0  0  0  0  0  0
   -3.8970    2.7780   -2.3101 H   0  0  0  0  0  0  0  0  0  0  0  0
   -6.2889    2.3288   -1.4144 H   0  0  0  0  0  0  0  0  0  0  0  0
   -5.6747    0.7347   -1.9780 H   0  0  0  0  0  0  0  0  0  0  0  0
   -7.9628    0.3602   -1.8436 H   0  0  0  0  0  0  0  0  0  0  0  0
   -7.2923   -0.4052   -0.3852 H   0  0  0  0  0  0  0  0  0  0  0  0
  -10.4263    1.0235    0.8328 H   0  0  0  0  0  0  0  0  0  0  0  0
   -9.3795   -0.4342    0.7573 H   0  0  0  0  0  0  0  0  0  0  0  0
  -10.1382    0.2091   -0.7440 H   0  0  0  0  0  0  0  0  0  0  0  0
   -7.4777    0.8200    1.8122 H   0  0  0  0  0  0  0  0  0  0  0  0
   -8.6628    2.1678    1.9672 H   0  0  0  0  0  0  0  0  0  0  0  0
   -7.0830    2.4734    1.1975 H   0  0  0  0  0  0  0  0  0  0  0  0
   -9.2738    2.3599   -1.7441 H   0  0  0  0  0  0  0  0  0  0  0  0
   -9.7668    3.0709   -0.1674 H   0  0  0  0  0  0  0  0  0  0  0  0
   -8.1183    3.3512   -0.7744 H   0  0  0  0  0  0  0  0  0  0  0  0
  1  2  1  0
  2  3  1  0
  3  4  1  0
  4  5  1  0
  5  6  1  0
  6  7  1  0
  7  8  1  0
  8  9  1  0
  9 10  1  0
 10 11  1  0
 11 12  1  0
 12 13  1  0
 13 14  1  0
 14 15  1  0
 15 16  1  0
 16 17  1  0
 17 18  1  0
 18 19  2  0
 18 20  1  0
 18 21  1  0
 21 22  1  0
 22 23  1  0
 23 24  1  0
 24 25  1  0
 24 26  1  0
 24 27  1  0
  1 28  1  0
  1 29  1  0
  1 30  1  0
  2 31  1  0
  2 32  1  0
  3 33  1  0
  3 34  1  0
  4 35  1  0
  4 36  1  0
  5 37  1  0
  5 38  1  0
  6 39  1  0
  6 40  1  0
  7 41  1  0
  7 42  1  0
  8 43  1  0
  8 44  1  0
  9 45  1  0
  9 46  1  0
 10 47  1  0
 10 48  1  0
 11 49  1  0
 11 50  1  0
 12 51  1  0
 12 52  1  0
 13 53  1  0
 13 54  1  0
 14 55  1  0
 14 56  1  0
 15 57  1  0
 15 58  1  0
 16 59  1  0
 16 60  1  0
 20 61  1  0
 22 62  1  0
 22 63  1  0
 23 64  1  0
 23 65  1  0
 25 66  1  0
 25 67  1  0
 25 68  1  0
 26 69  1  0
 26 70  1  0
 26 71  1  0
 27 72  1  0
 27 73  1  0
 27 74  1  0
M  CHG  1  24   1
M  END
> <ID>
HT1403

> <Class>
0.0

> <Clusters>
270

> <Fold>
4

$$$$