
     RDKit          3D

 51 53  0  0  0  0  0  0  0  0999 V2000
    4.6798    0.6863    0.6945 C   0  0  0  0  0  0  0  0  0  0  0  0
    3.3690   -0.0200    1.0928 C   0  0  0  0  0  0  0  0  0  0  0  0
    2.1398    0.8438    1.0765 N   0  0  0  0  0  0  0  0  0  0  0  0
    2.2603    1.9186    2.1015 C   0  0  0  0  0  0  0  0  0  0  0  0
    0.9414   -0.0110    1.3719 C   0  0  0  0  0  0  0  0  0  0  0  0
    1.0197   -0.8498    2.6613 C   0  0  0  0  0  0  0  0  0  0  0  0
    1.9905    1.4508   -0.2923 C   0  0  0  0  0  0  0  0  0  0  0  0
    0.6826    2.2428   -0.5480 C   0  0  0  0  0  0  0  0  0  0  0  0
   -0.4180    1.3759   -0.8186 O   0  0  0  0  0  0  0  0  0  0  0  0
   -0.5701    0.6601   -2.0122 C   0  0  0  0  0  0  0  0  0  0  0  0
    0.1957    0.8711   -2.9925 O   0  0  0  0  0  0  0  0  0  0  0  0
   -1.6295   -0.4020   -2.1072 C   0  0  0  0  0  0  0  0  0  0  0  0
   -2.9520    0.1596   -1.6263 C   0  0  0  0  0  0  0  0  0  0  0  0
   -3.5988    1.1597   -2.3733 C   0  0  0  0  0  0  0  0  0  0  0  0
   -4.7812    1.7396   -1.9027 C   0  0  0  0  0  0  0  0  0  0  0  0
   -5.3269    1.3285   -0.6840 C   0  0  0  0  0  0  0  0  0  0  0  0
   -4.6988    0.3271    0.0610 C   0  0  0  0  0  0  0  0  0  0  0  0
   -3.5201   -0.2647   -0.4077 C   0  0  0  0  0  0  0  0  0  0  0  0
   -2.9235   -1.2823    0.3380 O   0  0  0  0  0  0  0  0  0  0  0  0
   -1.8034   -1.9800   -0.1193 C   0  0  0  0  0  0  0  0  0  0  0  0
   -1.3109   -3.0518    0.6329 C   0  0  0  0  0  0  0  0  0  0  0  0
   -0.1992   -3.7710    0.1881 C   0  0  0  0  0  0  0  0  0  0  0  0
    0.4194   -3.4287   -1.0161 C   0  0  0  0  0  0  0  0  0  0  0  0
   -0.0650   -2.3589   -1.7726 C   0  0  0  0  0  0  0  0  0  0  0  0
   -1.1746   -1.6181   -1.3279 C   0  0  0  0  0  0  0  0  0  0  0  0
    4.8523    1.6003    1.2980 H   0  0  0  0  0  0  0  0  0  0  0  0
    4.6949    0.9322   -0.3873 H   0  0  0  0  0  0  0  0  0  0  0  0
    5.5306   -0.0032    0.8826 H   0  0  0  0  0  0  0  0  0  0  0  0
    3.5435   -0.4326    2.1109 H   0  0  0  0  0  0  0  0  0  0  0  0
    3.2357   -0.8929    0.4113 H   0  0  0  0  0  0  0  0  0  0  0  0
    1.2730    2.3603    2.3576 H   0  0  0  0  0  0  0  0  0  0  0  0
    2.9094    2.7507    1.7515 H   0  0  0  0  0  0  0  0  0  0  0  0
    2.7014    1.5364    3.0475 H   0  0  0  0  0  0  0  0  0  0  0  0
    0.7650   -0.7164    0.5306 H   0  0  0  0  0  0  0  0  0  0  0  0
    0.0276    0.6165    1.4709 H   0  0  0  0  0  0  0  0  0  0  0  0
    1.7023   -1.7136    2.5321 H   0  0  0  0  0  0  0  0  0  0  0  0
    1.3360   -0.2414    3.5321 H   0  0  0  0  0  0  0  0  0  0  0  0
    0.0140   -1.2618    2.8844 H   0  0  0  0  0  0  0  0  0  0  0  0
    2.0846    0.6634   -1.0744 H   0  0  0  0  0  0  0  0  0  0  0  0
    2.8171    2.1704   -0.4840 H   0  0  0  0  0  0  0  0  0  0  0  0
    0.8259    2.9276   -1.4127 H   0  0  0  0  0  0  0  0  0  0  0  0
    0.4307    2.8832    0.3196 H   0  0  0  0  0  0  0  0  0  0  0  0
   -1.7608   -0.7091   -3.1691 H   0  0  0  0  0  0  0  0  0  0  0  0
   -3.1769    1.5008   -3.3102 H   0  0  0  0  0  0  0  0  0  0  0  0
   -5.2698    2.5157   -2.4781 H   0  0  0  0  0  0  0  0  0  0  0  0
   -6.2385    1.7845   -0.3181 H   0  0  0  0  0  0  0  0  0  0  0  0
   -5.1315    0.0051    1.0001 H   0  0  0  0  0  0  0  0  0  0  0  0
   -1.7911   -3.3257    1.5647 H   0  0  0  0  0  0  0  0  0  0  0  0
    0.1830   -4.5952    0.7763 H   0  0  0  0  0  0  0  0  0  0  0  0
    1.2798   -3.9871   -1.3592 H   0  0  0  0  0  0  0  0  0  0  0  0
    0.4355   -2.0934   -2.6950 H   0  0  0  0  0  0  0  0  0  0  0  0
  1  2  1  0
  2  3  1  0
  3  4  1  0
  3  5  1  0
  5  6  1  0
  3  7  1  0
  7  8  1  0
  8  9  1  0
  9 10  1  0
 10 11  2  0
 10 12  1  0
 12 13  1  0
 13 14  2  0
 14 15  1  0
 15 16  2  0
 16 17  1  0
 17 18  2  0
 18 13  1  0
 18 19  1  0
 19 20  1  0
 20 21  2  0
 21 22  1  0
 22 23  2  0
 23 24  1  0
 24 25  2  0
 25 12  1  0
 25 20  1  0
  1 26  1  0
  1 27  1  0
  1 28  1  0
  2 29  1  0
  2 30  1  0
  4 31  1  0
  4 32  1  0
  4 33  1  0
  5 34  1  0
  5 35  1  0
  6 36  1  0
  6 37  1  0
  6 38  1  0
  7 39  1  0
  7 40  1  0
  8 41  1  0
  8 42  1  0
 12 43  1  0
 14 44  1  0
 15 45  1  0
 16 46  1  0
 17 47  1  0
 21 48  1  0
 22 49  1  0
 23 50  1  0
 24 51  1  0
M  CHG  1   3   1
M  END
> <ID>
HT1335

> <Class>
0.0

> <Clusters>
165

> <Fold>
4

$$$$