
     RDKit          3D

 38 39  0  0  0  0  0  0  0  0999 V2000
   -2.6730    0.2655   -2.4536 C   0  0  0  0  0  0  0  0  0  0  0  0
   -2.3968    0.4817   -1.0325 N   0  0  0  0  0  0  0  0  0  0  0  0
   -3.4896    0.6146   -0.0620 C   0  0  0  0  0  0  0  0  0  0  0  0
   -3.5998   -0.8493    0.9523 S   0  0  0  0  0  0  0  0  0  0  0  0
   -3.6698   -2.0653    0.0717 O   0  0  0  0  0  0  0  0  0  0  0  0
   -2.3928   -0.9401    1.8435 O   0  0  0  0  0  0  0  0  0  0  0  0
   -4.9876   -0.7578    1.8963 O   0  0  0  0  0  0  0  0  0  0  0  0
   -1.0316    0.5113   -0.5885 C   0  0  0  0  0  0  0  0  0  0  0  0
   -0.3700    1.5394    0.0664 C   0  0  0  0  0  0  0  0  0  0  0  0
   -0.9333    2.8862    0.4078 C   0  0  0  0  0  0  0  0  0  0  0  0
    0.8870    1.1199    0.3596 N   0  0  0  0  0  0  0  0  0  0  0  0
    1.9006    1.8904    1.0849 C   0  0  0  0  0  0  0  0  0  0  0  0
    1.0523   -0.1126   -0.1197 N   0  0  0  0  0  0  0  0  0  0  0  0
   -0.1053   -0.5025   -0.6909 C   0  0  0  0  0  0  0  0  0  0  0  0
   -0.2962   -1.6269   -1.2273 O   0  0  0  0  0  0  0  0  0  0  0  0
    2.2581   -0.8937   -0.0452 C   0  0  0  0  0  0  0  0  0  0  0  0
    2.2276   -2.1917    0.4899 C   0  0  0  0  0  0  0  0  0  0  0  0
    3.3972   -2.9555    0.5525 C   0  0  0  0  0  0  0  0  0  0  0  0
    4.6020   -2.4314    0.0756 C   0  0  0  0  0  0  0  0  0  0  0  0
    4.6381   -1.1440   -0.4673 C   0  0  0  0  0  0  0  0  0  0  0  0
    3.4702   -0.3776   -0.5312 C   0  0  0  0  0  0  0  0  0  0  0  0
   -2.2691   -0.7173   -2.7735 H   0  0  0  0  0  0  0  0  0  0  0  0
   -3.7631    0.2746   -2.6632 H   0  0  0  0  0  0  0  0  0  0  0  0
   -2.1941    1.0688   -3.0521 H   0  0  0  0  0  0  0  0  0  0  0  0
   -4.4634    0.7577   -0.5756 H   0  0  0  0  0  0  0  0  0  0  0  0
   -3.3278    1.4968    0.5889 H   0  0  0  0  0  0  0  0  0  0  0  0
   -4.9895   -1.5928    2.4292 H   0  0  0  0  0  0  0  0  0  0  0  0
   -1.3036    2.8793    1.4538 H   0  0  0  0  0  0  0  0  0  0  0  0
   -1.7668    3.1427   -0.2789 H   0  0  0  0  0  0  0  0  0  0  0  0
   -0.1522    3.6668    0.2987 H   0  0  0  0  0  0  0  0  0  0  0  0
    1.4214    2.5471    1.8409 H   0  0  0  0  0  0  0  0  0  0  0  0
    2.5911    1.2133    1.6289 H   0  0  0  0  0  0  0  0  0  0  0  0
    2.4763    2.5148    0.3707 H   0  0  0  0  0  0  0  0  0  0  0  0
    1.3007   -2.6046    0.8676 H   0  0  0  0  0  0  0  0  0  0  0  0
    3.3697   -3.9532    0.9711 H   0  0  0  0  0  0  0  0  0  0  0  0
    5.5066   -3.0238    0.1240 H   0  0  0  0  0  0  0  0  0  0  0  0
    5.5700   -0.7416   -0.8427 H   0  0  0  0  0  0  0  0  0  0  0  0
    3.5064    0.6111   -0.9698 H   0  0  0  0  0  0  0  0  0  0  0  0
  1  2  1  0
  2  3  1  0
  3  4  1  0
  4  5  2  0
  4  6  2  0
  4  7  1  0
  2  8  1  0
  8  9  2  0
  9 10  1  0
  9 11  1  0
 11 12  1  0
 11 13  1  0
 13 14  1  0
 14  8  1  0
 14 15  2  0
 13 16  1  0
 16 17  2  0
 17 18  1  0
 18 19  2  0
 19 20  1  0
 20 21  2  0
 21 16  1  0
  1 22  1  0
  1 23  1  0
  1 24  1  0
  3 25  1  0
  3 26  1  0
  7 27  1  0
 10 28  1  0
 10 29  1  0
 10 30  1  0
 12 31  1  0
 12 32  1  0
 12 33  1  0
 17 34  1  0
 18 35  1  0
 19 36  1  0
 20 37  1  0
 21 38  1  0
M  END
> <ID>
HT1322

> <Class>
0.0

> <Clusters>
16

> <Fold>
4

$$$$