
     RDKit          3D

 54 57  0  0  0  0  0  0  0  0999 V2000
    3.0614    2.9440    0.1807 O   0  0  0  0  0  0  0  0  0  0  0  0
    2.9130    1.7055   -0.0021 C   0  0  0  0  0  0  0  0  0  0  0  0
    1.5220    1.1868   -0.3101 C   0  0  0  0  0  0  0  0  0  0  0  0
    4.0773    0.7891    0.1085 C   0  0  0  0  0  0  0  0  0  0  0  0
    5.4196    1.2407   -0.0289 C   0  0  0  0  0  0  0  0  0  0  0  0
    3.8335   -0.5706    0.4089 C   0  0  0  0  0  0  0  0  0  0  0  0
    6.4768    0.3648    0.2298 C   0  0  0  0  0  0  0  0  0  0  0  0
    5.7508    2.5285   -0.4567 O   0  0  0  0  0  0  0  0  0  0  0  0
    2.4291   -1.0703    0.4469 C   0  0  0  0  0  0  0  0  0  0  0  0
    4.9250   -1.4422    0.6035 C   0  0  0  0  0  0  0  0  0  0  0  0
    6.2323   -0.9680    0.5414 C   0  0  0  0  0  0  0  0  0  0  0  0
    1.4348   -0.3590   -0.4792 C   0  0  1  0  0  0  0  0  0  0  0  0
    2.1175   -2.1321    1.2156 C   0  0  0  0  0  0  0  0  0  0  0  0
   -0.0489   -0.8857   -0.4384 C   0  0  1  0  0  0  0  0  0  0  0  0
   -1.1035    0.2331   -0.6919 C   0  0  2  0  0  0  0  0  0  0  0  0
   -0.2043   -1.9038   -1.3964 O   0  0  0  0  0  0  0  0  0  0  0  0
   -0.9900    1.3331    0.4195 C   0  0  1  0  0  0  0  0  0  0  0  0
   -2.5572   -0.3644   -0.8405 C   0  0  2  0  0  0  0  0  0  0  0  0
   -1.6937    0.8365    1.6823 C   0  0  0  0  0  0  0  0  0  0  0  0
    0.4763    1.6692    0.6726 C   0  0  0  0  0  0  0  0  0  0  0  0
   -1.6376    2.4954   -0.0416 O   0  0  0  0  0  0  0  0  0  0  0  0
   -2.9989   -0.2943   -2.2618 N   0  0  0  0  0  0  0  0  0  0  0  0
   -3.5504    0.2107    0.1679 C   0  0  0  0  0  0  0  0  0  0  0  0
   -1.1228    0.8342    2.7647 O   0  0  0  0  0  0  0  0  0  0  0  0
   -3.1296    0.3797    1.6046 C   0  0  0  0  0  0  0  0  0  0  0  0
    0.7885    2.3691    1.6270 O   0  0  0  0  0  0  0  0  0  0  0  0
   -3.4265    1.0412   -2.7193 C   0  0  0  0  0  0  0  0  0  0  0  0
   -3.9943   -1.3221   -2.6079 C   0  0  0  0  0  0  0  0  0  0  0  0
   -4.7031    0.4664   -0.1450 O   0  0  0  0  0  0  0  0  0  0  0  0
   -3.3331   -0.9143    2.3508 C   0  0  0  0  0  0  0  0  0  0  0  0
   -2.6393   -1.9276    2.0643 O   0  0  0  0  0  0  0  0  0  0  0  0
   -4.3139   -1.0058    3.3848 N   0  0  0  0  0  0  0  0  0  0  0  0
    1.2579    1.6416   -1.2906 H   0  0  0  0  0  0  0  0  0  0  0  0
    7.4991    0.7121    0.1454 H   0  0  0  0  0  0  0  0  0  0  0  0
    5.1025    3.1524   -0.9162 H   0  0  0  0  0  0  0  0  0  0  0  0
    4.7774   -2.4984    0.7826 H   0  0  0  0  0  0  0  0  0  0  0  0
    7.0612   -1.6448    0.7043 H   0  0  0  0  0  0  0  0  0  0  0  0
    1.8103   -0.5602   -1.5088 H   0  0  0  0  0  0  0  0  0  0  0  0
    1.1546   -2.6121    1.2208 H   0  0  0  0  0  0  0  0  0  0  0  0
    2.8402   -2.5702    1.8899 H   0  0  0  0  0  0  0  0  0  0  0  0
   -0.3080   -1.2742    0.5676 H   0  0  0  0  0  0  0  0  0  0  0  0
   -0.8294    0.7052   -1.6618 H   0  0  0  0  0  0  0  0  0  0  0  0
    0.2056   -2.7235   -1.0160 H   0  0  0  0  0  0  0  0  0  0  0  0
   -2.4996   -1.4381   -0.5560 H   0  0  0  0  0  0  0  0  0  0  0  0
   -1.6185    3.1688    0.6891 H   0  0  0  0  0  0  0  0  0  0  0  0
   -3.7544    1.1748    2.0676 H   0  0  0  0  0  0  0  0  0  0  0  0
   -3.3157    1.1000   -3.8226 H   0  0  0  0  0  0  0  0  0  0  0  0
   -4.4902    1.2445   -2.4712 H   0  0  0  0  0  0  0  0  0  0  0  0
   -2.7963    1.8417   -2.2825 H   0  0  0  0  0  0  0  0  0  0  0  0
   -4.9399   -1.1807   -2.0431 H   0  0  0  0  0  0  0  0  0  0  0  0
   -4.2187   -1.2842   -3.6961 H   0  0  0  0  0  0  0  0  0  0  0  0
   -3.5905   -2.3349   -2.3940 H   0  0  0  0  0  0  0  0  0  0  0  0
   -4.9049   -0.1837    3.6387 H   0  0  0  0  0  0  0  0  0  0  0  0
   -4.4534   -1.9039    3.8987 H   0  0  0  0  0  0  0  0  0  0  0  0
  1  2  2  0
  2  3  1  0
  4  2  1  0
  5  4  2  0
  4  6  1  0
  7  5  1  0
  5  8  1  0
  9  6  1  0
  6 10  2  0
 11  7  2  0
 12  9  1  0
  9 13  2  3
 10 11  1  0
  3 12  1  0
 14 12  1  0
 15 14  1  0
 14 16  1  0
 17 15  1  0
 18 15  1  0
 17 19  1  0
 20 17  1  0
 17 21  1  6
 18 22  1  0
 23 18  1  0
 24 19  2  0
 19 25  1  0
  3 20  1  0
 20 26  2  0
 27 22  1  0
 22 28  1  0
 25 23  1  0
 23 29  2  0
 25 30  1  0
 30 31  2  0
 30 32  1  0
  3 33  1  0
  7 34  1  0
  8 35  1  0
 10 36  1  0
 11 37  1  0
 12 38  1  6
 13 39  1  0
 13 40  1  0
 14 41  1  1
 15 42  1  6
 16 43  1  0
 18 44  1  1
 21 45  1  0
 25 46  1  0
 27 47  1  0
 27 48  1  0
 27 49  1  0
 28 50  1  0
 28 51  1  0
 28 52  1  0
 32 53  1  0
 32 54  1  0
M  END
> <ID>
HT1330

> <Class>
0.0

> <Clusters>
225

> <Fold>
4

$$$$