
     RDKit          3D

 24 26  0  0  0  0  0  0  0  0999 V2000
   -1.9248   -2.6520   -0.0657 C   0  0  0  0  0  0  0  0  0  0  0  0
   -1.9841   -1.2972   -0.4972 O   0  0  0  0  0  0  0  0  0  0  0  0
   -0.9706   -0.3373   -0.3321 C   0  0  0  0  0  0  0  0  0  0  0  0
    0.2824   -0.5820    0.3000 C   0  0  0  0  0  0  0  0  0  0  0  0
    0.5770   -1.7839    0.7907 O   0  0  0  0  0  0  0  0  0  0  0  0
    1.7319   -2.0616    1.3889 C   0  0  0  0  0  0  0  0  0  0  0  0
    1.9407   -3.2222    1.8290 O   0  0  0  0  0  0  0  0  0  0  0  0
    2.7117   -1.0760    1.5312 C   0  0  0  0  0  0  0  0  0  0  0  0
    2.4619    0.2020    1.0377 C   0  0  0  0  0  0  0  0  0  0  0  0
    1.2416    0.4726    0.4125 C   0  0  0  0  0  0  0  0  0  0  0  0
    0.9604    1.7554   -0.0964 C   0  0  0  0  0  0  0  0  0  0  0  0
   -0.2729    1.9512   -0.7051 C   0  0  0  0  0  0  0  0  0  0  0  0
   -0.8184    3.0730   -1.2838 C   0  0  0  0  0  0  0  0  0  0  0  0
   -2.0730    2.6652   -1.7215 C   0  0  0  0  0  0  0  0  0  0  0  0
   -2.2710    1.3924   -1.4293 O   0  0  0  0  0  0  0  0  0  0  0  0
   -1.1983    0.9503   -0.8186 C   0  0  0  0  0  0  0  0  0  0  0  0
   -1.0898   -3.1801   -0.5723 H   0  0  0  0  0  0  0  0  0  0  0  0
   -2.8737   -3.1579   -0.3377 H   0  0  0  0  0  0  0  0  0  0  0  0
   -1.8078   -2.6988    1.0375 H   0  0  0  0  0  0  0  0  0  0  0  0
    3.6538   -1.2973    2.0176 H   0  0  0  0  0  0  0  0  0  0  0  0
    3.2160    0.9728    1.1436 H   0  0  0  0  0  0  0  0  0  0  0  0
    1.6743    2.5671   -0.0206 H   0  0  0  0  0  0  0  0  0  0  0  0
   -0.3727    4.0543   -1.3784 H   0  0  0  0  0  0  0  0  0  0  0  0
   -2.7947    3.2900   -2.2302 H   0  0  0  0  0  0  0  0  0  0  0  0
  1  2  1  0
  2  3  1  0
  3  4  2  0
  4  5  1  0
  5  6  1  0
  6  7  2  0
  6  8  1  0
  8  9  2  0
  9 10  1  0
 10  4  1  0
 10 11  2  0
 11 12  1  0
 12 13  1  0
 13 14  2  0
 14 15  1  0
 15 16  1  0
 16  3  1  0
 16 12  2  0
  1 17  1  0
  1 18  1  0
  1 19  1  0
  8 20  1  0
  9 21  1  0
 11 22  1  0
 13 23  1  0
 14 24  1  0
M  END
> <ID>
HT1350

> <Class>
0.0

> <Clusters>
255

> <Fold>
4

$$$$