
     RDKit          3D

 26 26  0  0  0  0  0  0  0  0999 V2000
   -3.5678    0.8255   -0.7094 C   0  0  0  0  0  0  0  0  0  0  0  0
   -2.5566   -0.2093   -0.9418 N   0  0  0  0  0  0  0  0  0  0  0  0
   -1.3079    0.0500   -0.1995 C   0  0  1  0  0  0  0  0  0  0  0  0
   -1.4132   -0.4278    1.2626 C   0  0  0  0  0  0  0  0  0  0  0  0
   -0.1516   -0.6619   -0.9291 C   0  0  0  0  0  0  0  0  0  0  0  0
    1.2001   -0.3045   -0.3594 C   0  0  0  0  0  0  0  0  0  0  0  0
    1.9558   -1.2636    0.3369 C   0  0  0  0  0  0  0  0  0  0  0  0
    3.2080   -0.9289    0.8617 C   0  0  0  0  0  0  0  0  0  0  0  0
    3.7171    0.3613    0.6915 C   0  0  0  0  0  0  0  0  0  0  0  0
    2.9757    1.3189   -0.0056 C   0  0  0  0  0  0  0  0  0  0  0  0
    1.7229    0.9889   -0.5316 C   0  0  0  0  0  0  0  0  0  0  0  0
   -3.1821    1.8220   -1.0143 H   0  0  0  0  0  0  0  0  0  0  0  0
   -3.8796    0.8512    0.3558 H   0  0  0  0  0  0  0  0  0  0  0  0
   -4.4634    0.6052   -1.3274 H   0  0  0  0  0  0  0  0  0  0  0  0
   -2.9561   -1.1375   -0.6664 H   0  0  0  0  0  0  0  0  0  0  0  0
   -1.0901    1.1425   -0.1961 H   0  0  0  0  0  0  0  0  0  0  0  0
   -0.4793   -0.1924    1.8151 H   0  0  0  0  0  0  0  0  0  0  0  0
   -1.5863   -1.5243    1.3063 H   0  0  0  0  0  0  0  0  0  0  0  0
   -2.2448    0.0867    1.7851 H   0  0  0  0  0  0  0  0  0  0  0  0
   -0.1642   -0.3779   -2.0042 H   0  0  0  0  0  0  0  0  0  0  0  0
   -0.3156   -1.7617   -0.8877 H   0  0  0  0  0  0  0  0  0  0  0  0
    1.5739   -2.2667    0.4803 H   0  0  0  0  0  0  0  0  0  0  0  0
    3.7838   -1.6700    1.4007 H   0  0  0  0  0  0  0  0  0  0  0  0
    4.6867    0.6184    1.0981 H   0  0  0  0  0  0  0  0  0  0  0  0
    3.3725    2.3169   -0.1399 H   0  0  0  0  0  0  0  0  0  0  0  0
    1.1621    1.7389   -1.0753 H   0  0  0  0  0  0  0  0  0  0  0  0
  1  2  1  0
  2  3  1  0
  3  4  1  0
  3  5  1  0
  5  6  1  0
  6  7  2  0
  7  8  1  0
  8  9  2  0
  9 10  1  0
 10 11  2  0
 11  6  1  0
  1 12  1  0
  1 13  1  0
  1 14  1  0
  2 15  1  0
  3 16  1  1
  4 17  1  0
  4 18  1  0
  4 19  1  0
  5 20  1  0
  5 21  1  0
  7 22  1  0
  8 23  1  0
  9 24  1  0
 10 25  1  0
 11 26  1  0
M  END
> <ID>
HT1332

> <Class>
0.0

> <Clusters>
164

> <Fold>
4

$$$$