
     RDKit          3D

 27 27  0  0  0  0  0  0  0  0999 V2000
   -2.7131    0.5347    1.7812 C   0  0  0  0  0  0  0  0  0  0  0  0
   -1.4364    0.0056    1.0993 C   0  0  2  0  0  0  0  0  0  0  0  0
   -0.4301   -0.2534    2.1419 N   0  0  0  0  0  0  0  0  0  0  0  0
   -0.9088    1.0943    0.1237 C   0  0  0  0  0  0  0  0  0  0  0  0
    0.3683    0.7053   -0.5871 C   0  0  0  0  0  0  0  0  0  0  0  0
    0.3235   -0.0369   -1.7795 C   0  0  0  0  0  0  0  0  0  0  0  0
    1.5058   -0.3874   -2.4383 C   0  0  0  0  0  0  0  0  0  0  0  0
    2.7435    0.0063   -1.9205 C   0  0  0  0  0  0  0  0  0  0  0  0
    3.9134   -0.3511   -2.5869 O   0  0  0  0  0  0  0  0  0  0  0  0
    2.7952    0.7575   -0.7388 C   0  0  0  0  0  0  0  0  0  0  0  0
    1.6144    1.1095   -0.0782 C   0  0  0  0  0  0  0  0  0  0  0  0
   -1.7802   -1.2687    0.3475 C   0  0  0  0  0  0  0  0  0  0  0  0
   -2.6618   -1.2505   -0.5545 O   0  0  0  0  0  0  0  0  0  0  0  0
   -1.1311   -2.4651    0.6428 O   0  0  0  0  0  0  0  0  0  0  0  0
   -3.1414   -0.2350    2.4595 H   0  0  0  0  0  0  0  0  0  0  0  0
   -2.4831    1.4389    2.3851 H   0  0  0  0  0  0  0  0  0  0  0  0
   -3.4849    0.8042    1.0278 H   0  0  0  0  0  0  0  0  0  0  0  0
    0.4167   -0.7007    1.7216 H   0  0  0  0  0  0  0  0  0  0  0  0
   -0.8131   -0.9370    2.8361 H   0  0  0  0  0  0  0  0  0  0  0  0
   -0.7351    2.0360    0.6908 H   0  0  0  0  0  0  0  0  0  0  0  0
   -1.6861    1.3363   -0.6352 H   0  0  0  0  0  0  0  0  0  0  0  0
   -0.6257   -0.3416   -2.2012 H   0  0  0  0  0  0  0  0  0  0  0  0
    1.4598   -0.9631   -3.3539 H   0  0  0  0  0  0  0  0  0  0  0  0
    4.8254   -0.0806   -2.2376 H   0  0  0  0  0  0  0  0  0  0  0  0
    3.7488    1.0693   -0.3321 H   0  0  0  0  0  0  0  0  0  0  0  0
    1.6717    1.6892    0.8348 H   0  0  0  0  0  0  0  0  0  0  0  0
   -1.3557   -3.3160    0.1411 H   0  0  0  0  0  0  0  0  0  0  0  0
  2  1  1  0
  2  3  1  0
  2  4  1  0
  4  5  1  0
  5  6  2  0
  6  7  1  0
  7  8  2  0
  8  9  1  0
  8 10  1  0
 10 11  2  0
 11  5  1  0
  2 12  1  6
 12 13  2  0
 12 14  1  0
  1 15  1  0
  1 16  1  0
  1 17  1  0
  3 18  1  0
  3 19  1  0
  4 20  1  0
  4 21  1  0
  6 22  1  0
  7 23  1  0
  9 24  1  0
 10 25  1  0
 11 26  1  0
 14 27  1  0
M  END
> <ID>
HT1384

> <Class>
0.0

> <Clusters>
54

> <Fold>
4

$$$$