
     RDKit          3D

 70 72  0  0  0  0  0  0  0  0999 V2000
   -2.8893    2.8622    2.0454 C   0  0  0  0  0  0  0  0  0  0  0  0
   -2.5513    3.1695    0.5944 C   0  0  0  0  0  0  0  0  0  0  0  0
   -2.8585    2.0365   -0.2083 O   0  0  0  0  0  0  0  0  0  0  0  0
   -2.6947    2.0210   -1.5998 C   0  0  0  0  0  0  0  0  0  0  0  0
   -2.3203    3.0584   -2.2108 O   0  0  0  0  0  0  0  0  0  0  0  0
   -2.9216    0.7467   -2.3761 C   0  0  2  0  0  0  0  0  0  0  0  0
   -3.8316   -0.2635   -1.6332 C   0  0  0  0  0  0  0  0  0  0  0  0
   -5.2858    0.2349   -1.5373 C   0  0  0  0  0  0  0  0  0  0  0  0
   -6.0980   -0.6255   -0.6069 C   0  0  0  0  0  0  0  0  0  0  0  0
   -7.1049   -1.4664   -1.1089 C   0  0  0  0  0  0  0  0  0  0  0  0
   -7.8559   -2.2648   -0.2384 C   0  0  0  0  0  0  0  0  0  0  0  0
   -7.6138   -2.2204    1.1368 C   0  0  0  0  0  0  0  0  0  0  0  0
   -6.6250   -1.3755    1.6471 C   0  0  0  0  0  0  0  0  0  0  0  0
   -5.8698   -0.5779    0.7804 C   0  0  0  0  0  0  0  0  0  0  0  0
   -1.6307    0.1491   -2.7672 N   0  0  0  0  0  0  0  0  0  0  0  0
   -0.7579   -0.2713   -1.6434 C   0  0  1  0  0  0  0  0  0  0  0  0
   -0.5877   -1.7992   -1.6222 C   0  0  0  0  0  0  0  0  0  0  0  0
    0.5928    0.4018   -1.7745 C   0  0  0  0  0  0  0  0  0  0  0  0
    0.7932    1.1908   -2.7368 O   0  0  0  0  0  0  0  0  0  0  0  0
    1.6641    0.1571   -0.8345 N   0  0  0  0  0  0  0  0  0  0  0  0
    3.0434    0.2477   -1.3494 C   0  0  0  0  0  0  0  0  0  0  0  0
    4.1045   -0.1503   -0.3504 C   0  0  0  0  0  0  0  0  0  0  0  0
    5.4528   -0.0285   -0.7192 C   0  0  0  0  0  0  0  0  0  0  0  0
    6.4800   -0.4031    0.1673 C   0  0  0  0  0  0  0  0  0  0  0  0
    7.8374   -0.3065   -0.1802 O   0  0  0  0  0  0  0  0  0  0  0  0
    8.3164    0.1043   -1.4581 C   0  0  0  0  0  0  0  0  0  0  0  0
    6.1521   -0.8987    1.4369 C   0  0  0  0  0  0  0  0  0  0  0  0
    7.1983   -1.2784    2.2933 O   0  0  0  0  0  0  0  0  0  0  0  0
    7.0203   -1.7911    3.6100 C   0  0  0  0  0  0  0  0  0  0  0  0
    4.7997   -1.0193    1.8091 C   0  0  0  0  0  0  0  0  0  0  0  0
    3.7771   -0.6469    0.9232 C   0  0  0  0  0  0  0  0  0  0  0  0
    2.3428   -0.8938    1.2952 C   0  0  0  0  0  0  0  0  0  0  0  0
    1.3990    0.1059    0.6170 C   0  0  1  0  0  0  0  0  0  0  0  0
    1.5029    1.4801    1.2309 C   0  0  0  0  0  0  0  0  0  0  0  0
    1.2175    1.6480    2.4471 O   0  0  0  0  0  0  0  0  0  0  0  0
    1.8896    2.5731    0.4610 O   0  0  0  0  0  0  0  0  0  0  0  0
   -3.9708    2.6207    2.1422 H   0  0  0  0  0  0  0  0  0  0  0  0
   -2.2829    2.0001    2.3966 H   0  0  0  0  0  0  0  0  0  0  0  0
   -2.6523    3.7452    2.6772 H   0  0  0  0  0  0  0  0  0  0  0  0
   -1.4671    3.4047    0.5101 H   0  0  0  0  0  0  0  0  0  0  0  0
   -3.1477    4.0453    0.2551 H   0  0  0  0  0  0  0  0  0  0  0  0
   -3.4476    1.0297   -3.3169 H   0  0  0  0  0  0  0  0  0  0  0  0
   -3.4309   -0.4666   -0.6172 H   0  0  0  0  0  0  0  0  0  0  0  0
   -3.8341   -1.2310   -2.1818 H   0  0  0  0  0  0  0  0  0  0  0  0
   -5.3195    1.2796   -1.1674 H   0  0  0  0  0  0  0  0  0  0  0  0
   -5.7293    0.2359   -2.5554 H   0  0  0  0  0  0  0  0  0  0  0  0
   -7.3034   -1.5154   -2.1731 H   0  0  0  0  0  0  0  0  0  0  0  0
   -8.6249   -2.9232   -0.6261 H   0  0  0  0  0  0  0  0  0  0  0  0
   -8.1932   -2.8421    1.8074 H   0  0  0  0  0  0  0  0  0  0  0  0
   -6.4461   -1.3412    2.7141 H   0  0  0  0  0  0  0  0  0  0  0  0
   -5.1075    0.0732    1.1863 H   0  0  0  0  0  0  0  0  0  0  0  0
   -1.7977   -0.6282   -3.4503 H   0  0  0  0  0  0  0  0  0  0  0  0
   -1.1921    0.0354   -0.6703 H   0  0  0  0  0  0  0  0  0  0  0  0
    0.0233   -2.1187   -0.7497 H   0  0  0  0  0  0  0  0  0  0  0  0
   -0.0905   -2.1478   -2.5539 H   0  0  0  0  0  0  0  0  0  0  0  0
   -1.5802   -2.2906   -1.5418 H   0  0  0  0  0  0  0  0  0  0  0  0
    3.1425   -0.4187   -2.2356 H   0  0  0  0  0  0  0  0  0  0  0  0
    3.2423    1.2924   -1.6762 H   0  0  0  0  0  0  0  0  0  0  0  0
    5.6897    0.3532   -1.7040 H   0  0  0  0  0  0  0  0  0  0  0  0
    7.9434   -0.5863   -2.2459 H   0  0  0  0  0  0  0  0  0  0  0  0
    9.4257    0.0774   -1.4520 H   0  0  0  0  0  0  0  0  0  0  0  0
    7.9871    1.1433   -1.6752 H   0  0  0  0  0  0  0  0  0  0  0  0
    8.0155   -2.0352    4.0390 H   0  0  0  0  0  0  0  0  0  0  0  0
    6.4091   -2.7188    3.5823 H   0  0  0  0  0  0  0  0  0  0  0  0
    6.5282   -1.0294    4.2553 H   0  0  0  0  0  0  0  0  0  0  0  0
    4.5337   -1.4195    2.7782 H   0  0  0  0  0  0  0  0  0  0  0  0
    2.0702   -1.9227    0.9732 H   0  0  0  0  0  0  0  0  0  0  0  0
    2.2084   -0.8454    2.3992 H   0  0  0  0  0  0  0  0  0  0  0  0
    0.3735   -0.2624    0.8144 H   0  0  0  0  0  0  0  0  0  0  0  0
    1.9384    3.5009    0.8620 H   0  0  0  0  0  0  0  0  0  0  0  0
  1  2  1  0
  2  3  1  0
  3  4  1  0
  4  5  2  0
  6  4  1  0
  6  7  1  0
  7  8  1  0
  8  9  1  0
  9 10  2  0
 10 11  1  0
 11 12  2  0
 12 13  1  0
 13 14  2  0
 14  9  1  0
  6 15  1  0
 15 16  1  0
 16 17  1  0
 16 18  1  0
 18 19  2  0
 18 20  1  0
 20 21  1  0
 21 22  1  0
 22 23  2  0
 23 24  1  0
 24 25  1  0
 25 26  1  0
 24 27  2  0
 27 28  1  0
 28 29  1  0
 27 30  1  0
 30 31  2  0
 31 22  1  0
 31 32  1  0
 32 33  1  0
 33 20  1  0
 33 34  1  0
 34 35  2  0
 34 36  1  0
  1 37  1  0
  1 38  1  0
  1 39  1  0
  2 40  1  0
  2 41  1  0
  6 42  1  6
  7 43  1  0
  7 44  1  0
  8 45  1  0
  8 46  1  0
 10 47  1  0
 11 48  1  0
 12 49  1  0
 13 50  1  0
 14 51  1  0
 15 52  1  0
 16 53  1  1
 17 54  1  0
 17 55  1  0
 17 56  1  0
 21 57  1  0
 21 58  1  0
 23 59  1  0
 26 60  1  0
 26 61  1  0
 26 62  1  0
 29 63  1  0
 29 64  1  0
 29 65  1  0
 30 66  1  0
 32 67  1  0
 32 68  1  0
 33 69  1  6
 36 70  1  0
M  END
> <ID>
HT1423

> <Class>
0.0

> <Clusters>
94

> <Fold>
4

$$$$