
     RDKit          3D

 36 36  0  0  0  0  0  0  0  0999 V2000
    4.7239   -0.4925   -0.7579 C   0  0  0  0  0  0  0  0  0  0  0  0
    3.6372   -0.4566    0.3126 C   0  0  0  0  0  0  0  0  0  0  0  0
    2.2776   -0.0854   -0.2910 C   0  0  0  0  0  0  0  0  0  0  0  0
    1.1847   -0.0505    0.7822 C   0  0  0  0  0  0  0  0  0  0  0  0
   -0.1171    0.3284    0.1665 N   0  0  0  0  0  0  0  0  0  0  0  0
   -0.6574    1.5150    0.8689 C   0  0  0  0  0  0  0  0  0  0  0  0
   -1.9495    2.0161    0.2149 C   0  0  2  0  0  0  0  0  0  0  0  0
   -2.4068    3.1822    0.8546 O   0  0  0  0  0  0  0  0  0  0  0  0
   -3.0140    0.9114    0.2554 C   0  0  1  0  0  0  0  0  0  0  0  0
   -4.1745    1.3388   -0.4108 O   0  0  0  0  0  0  0  0  0  0  0  0
   -2.4679   -0.3447   -0.4392 C   0  0  2  0  0  0  0  0  0  0  0  0
   -3.4189   -1.3803   -0.3755 O   0  0  0  0  0  0  0  0  0  0  0  0
   -1.1007   -0.7970    0.1601 C   0  0  1  0  0  0  0  0  0  0  0  0
   -0.5797   -2.0041   -0.6608 C   0  0  0  0  0  0  0  0  0  0  0  0
   -0.2890   -1.6142   -1.9758 O   0  0  0  0  0  0  0  0  0  0  0  0
    4.4782   -1.2505   -1.5320 H   0  0  0  0  0  0  0  0  0  0  0  0
    4.8250    0.5039   -1.2386 H   0  0  0  0  0  0  0  0  0  0  0  0
    5.6953   -0.7624   -0.2925 H   0  0  0  0  0  0  0  0  0  0  0  0
    3.5729   -1.4572    0.7931 H   0  0  0  0  0  0  0  0  0  0  0  0
    3.9209    0.2889    1.0872 H   0  0  0  0  0  0  0  0  0  0  0  0
    2.0139   -0.8264   -1.0734 H   0  0  0  0  0  0  0  0  0  0  0  0
    2.3453    0.9167   -0.7688 H   0  0  0  0  0  0  0  0  0  0  0  0
    1.5108    0.6755    1.5636 H   0  0  0  0  0  0  0  0  0  0  0  0
    1.1332   -1.0265    1.3124 H   0  0  0  0  0  0  0  0  0  0  0  0
    0.0829    2.3453    0.8203 H   0  0  0  0  0  0  0  0  0  0  0  0
   -0.8431    1.2784    1.9425 H   0  0  0  0  0  0  0  0  0  0  0  0
   -1.7310    2.2728   -0.8456 H   0  0  0  0  0  0  0  0  0  0  0  0
   -2.6024    2.9519    1.8008 H   0  0  0  0  0  0  0  0  0  0  0  0
   -3.2536    0.6591    1.3166 H   0  0  0  0  0  0  0  0  0  0  0  0
   -4.6823    1.9040    0.2282 H   0  0  0  0  0  0  0  0  0  0  0  0
   -2.3167   -0.0940   -1.5130 H   0  0  0  0  0  0  0  0  0  0  0  0
   -3.5397   -1.6192    0.5808 H   0  0  0  0  0  0  0  0  0  0  0  0
   -1.2732   -1.1407    1.2065 H   0  0  0  0  0  0  0  0  0  0  0  0
   -1.3469   -2.8099   -0.6736 H   0  0  0  0  0  0  0  0  0  0  0  0
    0.3236   -2.4481   -0.1922 H   0  0  0  0  0  0  0  0  0  0  0  0
    0.0387   -2.4281   -2.4396 H   0  0  0  0  0  0  0  0  0  0  0  0
  1  2  1  0
  2  3  1  0
  3  4  1  0
  4  5  1  0
  5  6  1  0
  6  7  1  0
  7  8  1  0
  7  9  1  0
  9 10  1  0
  9 11  1  0
 11 12  1  0
 11 13  1  0
 13  5  1  0
 13 14  1  0
 14 15  1  0
  1 16  1  0
  1 17  1  0
  1 18  1  0
  2 19  1  0
  2 20  1  0
  3 21  1  0
  3 22  1  0
  4 23  1  0
  4 24  1  0
  6 25  1  0
  6 26  1  0
  7 27  1  6
  8 28  1  0
  9 29  1  1
 10 30  1  0
 11 31  1  6
 12 32  1  0
 13 33  1  1
 14 34  1  0
 14 35  1  0
 15 36  1  0
M  END
> <ID>
HT1400

> <Class>
0.0

> <Clusters>
171

> <Fold>
4

$$$$