
     RDKit          3D

 68 71  0  0  0  0  0  0  0  0999 V2000
   -5.6760   -1.7522    0.8234 C   0  0  0  0  0  0  0  0  0  0  0  0
   -4.4748   -0.7892    0.8168 C   0  0  1  0  0  0  0  0  0  0  0  0
   -3.1681   -1.5871    0.7199 C   0  0  0  0  0  0  0  0  0  0  0  0
   -1.9320   -0.6680    0.8279 C   0  0  1  0  0  0  0  0  0  0  0  0
   -0.6358   -1.4953    0.6513 C   0  0  2  0  0  0  0  0  0  0  0  0
   -0.4090   -2.7022    1.5564 C   0  0  0  0  0  0  0  0  0  0  0  0
    1.1079   -2.9570    1.4957 C   0  0  0  0  0  0  0  0  0  0  0  0
    1.7343   -1.7979    0.6677 C   0  0  2  0  0  0  0  0  0  0  0  0
    1.8284   -2.2665   -0.6649 O   0  0  0  0  0  0  0  0  0  0  0  0
    3.1328   -1.4371    1.2094 C   0  0  0  0  0  0  0  0  0  0  0  0
    3.2943   -1.2369    2.4041 O   0  0  0  0  0  0  0  0  0  0  0  0
    4.3378   -1.3205    0.3145 C   0  0  0  0  0  0  0  0  0  0  0  0
    4.2629   -0.1062   -0.4237 O   0  0  0  0  0  0  0  0  0  0  0  0
    5.2126    0.2452   -1.3872 C   0  0  0  0  0  0  0  0  0  0  0  0
    6.1653   -0.5350   -1.6644 O   0  0  0  0  0  0  0  0  0  0  0  0
    5.0737    1.5450   -2.1205 C   0  0  0  0  0  0  0  0  0  0  0  0
    6.3156    2.4362   -1.9567 C   0  0  0  0  0  0  0  0  0  0  0  0
    6.4985    2.9838   -0.5644 C   0  0  0  0  0  0  0  0  0  0  0  0
    5.6414    2.7768    0.3373 O   0  0  0  0  0  0  0  0  0  0  0  0
    7.6281    3.7399   -0.2657 O   0  0  0  0  0  0  0  0  0  0  0  0
    0.6483   -0.6627    0.7810 C   0  0  2  0  0  0  0  0  0  0  0  0
    0.7629    0.0588    2.1679 C   0  0  0  0  0  0  0  0  0  0  0  0
    0.6352    0.3938   -0.3593 C   0  0  0  0  0  0  0  0  0  0  0  0
   -0.6416    1.2856   -0.3470 C   0  0  2  0  0  0  0  0  0  0  0  0
   -0.5788    2.2291    0.6886 O   0  0  0  0  0  0  0  0  0  0  0  0
   -1.9696    0.4457   -0.2802 C   0  0  2  0  0  0  0  0  0  0  0  0
   -3.3095    1.2833   -0.2618 C   0  0  1  0  0  0  0  0  0  0  0  0
   -3.4599    2.1720    0.9991 C   0  0  0  0  0  0  0  0  0  0  0  0
   -3.3251    2.2334   -1.4606 C   0  0  0  0  0  0  0  0  0  0  0  0
   -4.2786    2.2383   -2.3900 C   0  0  0  0  0  0  0  0  0  0  0  0
   -5.3796    1.2859   -2.3253 C   0  0  0  0  0  0  0  0  0  0  0  0
   -6.2824    1.3036   -3.2028 O   0  0  0  0  0  0  0  0  0  0  0  0
   -5.4261    0.3048   -1.2424 C   0  0  0  0  0  0  0  0  0  0  0  0
   -4.4802    0.2760   -0.2787 C   0  0  0  0  0  0  0  0  0  0  0  0
   -6.6262   -1.1837    0.9095 H   0  0  0  0  0  0  0  0  0  0  0  0
   -5.6922   -2.3749   -0.0957 H   0  0  0  0  0  0  0  0  0  0  0  0
   -5.6125   -2.4297    1.6996 H   0  0  0  0  0  0  0  0  0  0  0  0
   -4.4967   -0.2728    1.7999 H   0  0  0  0  0  0  0  0  0  0  0  0
   -3.1427   -2.3327    1.5451 H   0  0  0  0  0  0  0  0  0  0  0  0
   -3.1426   -2.1434   -0.2446 H   0  0  0  0  0  0  0  0  0  0  0  0
   -1.9543   -0.2190    1.8382 H   0  0  0  0  0  0  0  0  0  0  0  0
   -0.6802   -1.9108   -0.3862 H   0  0  0  0  0  0  0  0  0  0  0  0
   -0.7259   -2.4724    2.5983 H   0  0  0  0  0  0  0  0  0  0  0  0
   -0.9761   -3.5868    1.1909 H   0  0  0  0  0  0  0  0  0  0  0  0
    1.5044   -2.9927    2.5338 H   0  0  0  0  0  0  0  0  0  0  0  0
    1.3180   -3.9443    1.0267 H   0  0  0  0  0  0  0  0  0  0  0  0
    2.2590   -1.5719   -1.2239 H   0  0  0  0  0  0  0  0  0  0  0  0
    4.3845   -2.1896   -0.3750 H   0  0  0  0  0  0  0  0  0  0  0  0
    5.2682   -1.3230    0.9244 H   0  0  0  0  0  0  0  0  0  0  0  0
    4.9345    1.3231   -3.2008 H   0  0  0  0  0  0  0  0  0  0  0  0
    4.1682    2.0876   -1.7716 H   0  0  0  0  0  0  0  0  0  0  0  0
    6.2279    3.2962   -2.6567 H   0  0  0  0  0  0  0  0  0  0  0  0
    7.2253    1.8636   -2.2433 H   0  0  0  0  0  0  0  0  0  0  0  0
    8.3486    3.8977   -0.9632 H   0  0  0  0  0  0  0  0  0  0  0  0
    1.6524    0.7245    2.1815 H   0  0  0  0  0  0  0  0  0  0  0  0
   -0.1023    0.6920    2.4212 H   0  0  0  0  0  0  0  0  0  0  0  0
    0.8574   -0.6629    3.0045 H   0  0  0  0  0  0  0  0  0  0  0  0
    1.5485    1.0264   -0.3009 H   0  0  0  0  0  0  0  0  0  0  0  0
    0.6525   -0.1042   -1.3518 H   0  0  0  0  0  0  0  0  0  0  0  0
   -0.6345    1.8340   -1.3158 H   0  0  0  0  0  0  0  0  0  0  0  0
    0.1563    2.8571    0.4664 H   0  0  0  0  0  0  0  0  0  0  0  0
   -1.9944   -0.1033   -1.2511 H   0  0  0  0  0  0  0  0  0  0  0  0
   -3.1864    1.6392    1.9304 H   0  0  0  0  0  0  0  0  0  0  0  0
   -4.5133    2.5148    1.1010 H   0  0  0  0  0  0  0  0  0  0  0  0
   -2.8361    3.0891    0.9381 H   0  0  0  0  0  0  0  0  0  0  0  0
   -2.5581    2.9941   -1.5357 H   0  0  0  0  0  0  0  0  0  0  0  0
   -4.2429    2.9651   -3.1927 H   0  0  0  0  0  0  0  0  0  0  0  0
   -6.2411   -0.4044   -1.2658 H   0  0  0  0  0  0  0  0  0  0  0  0
  2  1  1  0
  2  3  1  0
  4  3  1  0
  4  5  1  0
  5  6  1  0
  6  7  1  0
  7  8  1  0
  8  9  1  6
  8 10  1  0
 10 11  2  0
 10 12  1  0
 12 13  1  0
 13 14  1  0
 14 15  2  0
 14 16  1  0
 16 17  1  0
 17 18  1  0
 18 19  2  0
 18 20  1  0
  8 21  1  0
 21  5  1  0
 21 22  1  1
 21 23  1  0
 23 24  1  0
 24 25  1  0
 24 26  1  0
 26  4  1  0
 26 27  1  0
 27 28  1  1
 27 29  1  0
 29 30  2  0
 30 31  1  0
 31 32  2  0
 31 33  1  0
 33 34  2  0
 34  2  1  0
 34 27  1  0
  1 35  1  0
  1 36  1  0
  1 37  1  0
  2 38  1  1
  3 39  1  0
  3 40  1  0
  4 41  1  1
  5 42  1  6
  6 43  1  0
  6 44  1  0
  7 45  1  0
  7 46  1  0
  9 47  1  0
 12 48  1  0
 12 49  1  0
 16 50  1  0
 16 51  1  0
 17 52  1  0
 17 53  1  0
 20 54  1  0
 22 55  1  0
 22 56  1  0
 22 57  1  0
 23 58  1  0
 23 59  1  0
 24 60  1  6
 25 61  1  0
 26 62  1  6
 28 63  1  0
 28 64  1  0
 28 65  1  0
 29 66  1  0
 30 67  1  0
 33 68  1  0
M  END
> <ID>
HT1366

> <Class>
0.0

> <Clusters>
202

> <Fold>
4

$$$$