
     RDKit          3D

 49 49  0  0  0  0  0  0  0  0999 V2000
    6.0169    2.0341    0.0872 C   0  0  0  0  0  0  0  0  0  0  0  0
    5.6414    0.8350   -0.7995 C   0  0  0  0  0  0  0  0  0  0  0  0
    6.6506   -0.3115   -0.6597 C   0  0  0  0  0  0  0  0  0  0  0  0
    4.2568    0.3647   -0.5844 N   0  0  0  0  0  0  0  0  0  0  0  0
    3.9126    0.1002    0.8237 C   0  0  0  0  0  0  0  0  0  0  0  0
    2.6851   -0.8254    0.9162 C   0  0  0  0  0  0  0  0  0  0  0  0
    2.5112   -1.2668    2.2399 O   0  0  0  0  0  0  0  0  0  0  0  0
    1.4025   -0.1497    0.4063 C   0  0  0  0  0  0  0  0  0  0  0  0
    0.2963   -1.0310    0.5876 O   0  0  0  0  0  0  0  0  0  0  0  0
   -1.0332   -0.7384    0.2367 C   0  0  0  0  0  0  0  0  0  0  0  0
   -1.3811    0.4904   -0.3479 C   0  0  0  0  0  0  0  0  0  0  0  0
   -2.7063    0.7744   -0.6933 C   0  0  0  0  0  0  0  0  0  0  0  0
   -3.0231    2.0852   -1.3621 C   0  0  0  0  0  0  0  0  0  0  0  0
   -3.7204   -0.1554   -0.3874 C   0  0  0  0  0  0  0  0  0  0  0  0
   -5.0588    0.1298   -0.6889 O   0  0  0  0  0  0  0  0  0  0  0  0
   -5.7825    1.1487   -0.0604 C   0  0  0  0  0  0  0  0  0  0  0  0
   -5.3027    1.7637    0.9307 O   0  0  0  0  0  0  0  0  0  0  0  0
   -7.1666    1.4555   -0.5200 C   0  0  0  0  0  0  0  0  0  0  0  0
   -3.3906   -1.3952    0.2013 C   0  0  0  0  0  0  0  0  0  0  0  0
   -4.4847   -2.3950    0.5014 C   0  0  0  0  0  0  0  0  0  0  0  0
   -2.0333   -1.7039    0.4769 C   0  0  0  0  0  0  0  0  0  0  0  0
   -1.6531   -3.0341    1.0877 C   0  0  0  0  0  0  0  0  0  0  0  0
    6.1044    1.7352    1.1531 H   0  0  0  0  0  0  0  0  0  0  0  0
    5.2494    2.8315   -0.0052 H   0  0  0  0  0  0  0  0  0  0  0  0
    6.9938    2.4514   -0.2377 H   0  0  0  0  0  0  0  0  0  0  0  0
    5.7113    1.1829   -1.8549 H   0  0  0  0  0  0  0  0  0  0  0  0
    6.3123   -1.1889   -1.2508 H   0  0  0  0  0  0  0  0  0  0  0  0
    7.6406    0.0098   -1.0483 H   0  0  0  0  0  0  0  0  0  0  0  0
    6.7808   -0.6172    0.3987 H   0  0  0  0  0  0  0  0  0  0  0  0
    3.6108    1.1068   -0.9432 H   0  0  0  0  0  0  0  0  0  0  0  0
    3.7050    1.0552    1.3572 H   0  0  0  0  0  0  0  0  0  0  0  0
    4.7507   -0.4067    1.3453 H   0  0  0  0  0  0  0  0  0  0  0  0
    2.8781   -1.7213    0.2860 H   0  0  0  0  0  0  0  0  0  0  0  0
    2.3384   -0.4664    2.8024 H   0  0  0  0  0  0  0  0  0  0  0  0
    1.5068    0.0821   -0.6751 H   0  0  0  0  0  0  0  0  0  0  0  0
    1.2244    0.7919    0.9707 H   0  0  0  0  0  0  0  0  0  0  0  0
   -0.6197    1.2312   -0.5523 H   0  0  0  0  0  0  0  0  0  0  0  0
   -3.2923    2.8404   -0.5950 H   0  0  0  0  0  0  0  0  0  0  0  0
   -3.8635    1.9705   -2.0787 H   0  0  0  0  0  0  0  0  0  0  0  0
   -2.1483    2.4588   -1.9361 H   0  0  0  0  0  0  0  0  0  0  0  0
   -7.8931    0.8650    0.0757 H   0  0  0  0  0  0  0  0  0  0  0  0
   -7.3803    2.5378   -0.3930 H   0  0  0  0  0  0  0  0  0  0  0  0
   -7.2750    1.1926   -1.5930 H   0  0  0  0  0  0  0  0  0  0  0  0
   -5.4903   -1.9269    0.5223 H   0  0  0  0  0  0  0  0  0  0  0  0
   -4.3305   -2.8528    1.5008 H   0  0  0  0  0  0  0  0  0  0  0  0
   -4.4823   -3.1906   -0.2726 H   0  0  0  0  0  0  0  0  0  0  0  0
   -1.8703   -3.0178    2.1761 H   0  0  0  0  0  0  0  0  0  0  0  0
   -2.2197   -3.8610    0.6114 H   0  0  0  0  0  0  0  0  0  0  0  0
   -0.5782   -3.2688    0.9437 H   0  0  0  0  0  0  0  0  0  0  0  0
  1  2  1  0
  2  3  1  0
  2  4  1  0
  4  5  1  0
  5  6  1  0
  6  7  1  0
  6  8  1  0
  8  9  1  0
  9 10  1  0
 10 11  2  0
 11 12  1  0
 12 13  1  0
 12 14  2  0
 14 15  1  0
 15 16  1  0
 16 17  2  0
 16 18  1  0
 14 19  1  0
 19 20  1  0
 19 21  2  0
 21 10  1  0
 21 22  1  0
  1 23  1  0
  1 24  1  0
  1 25  1  0
  2 26  1  0
  3 27  1  0
  3 28  1  0
  3 29  1  0
  4 30  1  0
  5 31  1  0
  5 32  1  0
  6 33  1  0
  7 34  1  0
  8 35  1  0
  8 36  1  0
 11 37  1  0
 13 38  1  0
 13 39  1  0
 13 40  1  0
 18 41  1  0
 18 42  1  0
 18 43  1  0
 20 44  1  0
 20 45  1  0
 20 46  1  0
 22 47  1  0
 22 48  1  0
 22 49  1  0
M  END
> <ID>
HT1374

> <Class>
0.0

> <Clusters>
11

> <Fold>
4

$$$$