
     RDKit          3D

 32 32  0  0  0  0  0  0  0  0999 V2000
   -3.7149   -0.2177    0.2309 C   0  0  0  0  0  0  0  0  0  0  0  0
   -2.5131   -0.2682   -0.7267 C   0  0  0  0  0  0  0  0  0  0  0  0
   -2.0557    1.1357   -1.1418 C   0  0  0  0  0  0  0  0  0  0  0  0
   -1.3858   -1.0636   -0.2000 N   0  0  0  0  0  0  0  0  0  0  0  0
   -0.9548   -0.6949    1.1596 C   0  0  0  0  0  0  0  0  0  0  0  0
    0.4993   -1.1323    1.4112 C   0  0  0  0  0  0  0  0  0  0  0  0
    0.6665   -2.5003    1.1387 O   0  0  0  0  0  0  0  0  0  0  0  0
    1.4649   -0.3201    0.5737 C   0  0  0  0  0  0  0  0  0  0  0  0
    2.2328    0.6959    1.1696 C   0  0  0  0  0  0  0  0  0  0  0  0
    3.1160    1.4644    0.3988 C   0  0  0  0  0  0  0  0  0  0  0  0
    3.8755    2.4743    0.9854 O   0  0  0  0  0  0  0  0  0  0  0  0
    3.2375    1.2196   -0.9720 C   0  0  0  0  0  0  0  0  0  0  0  0
    2.4838    0.2101   -1.5771 C   0  0  0  0  0  0  0  0  0  0  0  0
    2.6181   -0.0212   -2.9442 O   0  0  0  0  0  0  0  0  0  0  0  0
    1.6018   -0.5593   -0.8063 C   0  0  0  0  0  0  0  0  0  0  0  0
   -4.5862    0.2420   -0.2825 H   0  0  0  0  0  0  0  0  0  0  0  0
   -3.4863    0.3857    1.1344 H   0  0  0  0  0  0  0  0  0  0  0  0
   -3.9965   -1.2459    0.5424 H   0  0  0  0  0  0  0  0  0  0  0  0
   -2.8644   -0.7689   -1.6571 H   0  0  0  0  0  0  0  0  0  0  0  0
   -1.8328    1.7721   -0.2611 H   0  0  0  0  0  0  0  0  0  0  0  0
   -1.1454    1.0656   -1.7748 H   0  0  0  0  0  0  0  0  0  0  0  0
   -2.8546    1.6324   -1.7327 H   0  0  0  0  0  0  0  0  0  0  0  0
   -1.6685   -2.0723   -0.1926 H   0  0  0  0  0  0  0  0  0  0  0  0
   -1.6144   -1.1860    1.9100 H   0  0  0  0  0  0  0  0  0  0  0  0
   -1.0187    0.4008    1.3274 H   0  0  0  0  0  0  0  0  0  0  0  0
    0.7191   -0.9531    2.4901 H   0  0  0  0  0  0  0  0  0  0  0  0
    0.1918   -2.9967    1.8559 H   0  0  0  0  0  0  0  0  0  0  0  0
    2.1402    0.8982    2.2296 H   0  0  0  0  0  0  0  0  0  0  0  0
    3.8111    2.6783    1.9759 H   0  0  0  0  0  0  0  0  0  0  0  0
    3.9190    1.8141   -1.5675 H   0  0  0  0  0  0  0  0  0  0  0  0
    2.0854   -0.7440   -3.4141 H   0  0  0  0  0  0  0  0  0  0  0  0
    1.0293   -1.3446   -1.2833 H   0  0  0  0  0  0  0  0  0  0  0  0
  1  2  1  0
  2  3  1  0
  2  4  1  0
  4  5  1  0
  5  6  1  0
  6  7  1  0
  6  8  1  0
  8  9  2  0
  9 10  1  0
 10 11  1  0
 10 12  2  0
 12 13  1  0
 13 14  1  0
 13 15  2  0
 15  8  1  0
  1 16  1  0
  1 17  1  0
  1 18  1  0
  2 19  1  0
  3 20  1  0
  3 21  1  0
  3 22  1  0
  4 23  1  0
  5 24  1  0
  5 25  1  0
  6 26  1  0
  7 27  1  0
  9 28  1  0
 11 29  1  0
 12 30  1  0
 14 31  1  0
 15 32  1  0
M  END
> <ID>
HT1324

> <Class>
0.0

> <Clusters>
138

> <Fold>
4

$$$$