
     RDKit          3D

 24 24  0  0  0  0  0  0  0  0999 V2000
   -1.4059    0.1089    1.5306 N   0  0  0  0  0  0  0  0  0  0  0  0
   -1.6284    0.5405    0.1474 C   0  0  0  0  0  0  0  0  0  0  0  0
   -0.8855   -0.3966   -0.8223 C   0  0  0  0  0  0  0  0  0  0  0  0
    0.5548   -0.4275   -0.5270 N   0  0  0  0  0  0  0  0  0  0  0  0
    1.1117   -1.5366    0.0491 C   0  0  0  0  0  0  0  0  0  0  0  0
    2.4784   -1.5798    0.3323 C   0  0  0  0  0  0  0  0  0  0  0  0
    3.2801   -0.4818    0.0191 C   0  0  0  0  0  0  0  0  0  0  0  0
    4.5142   -0.5113    0.2714 O   0  0  0  0  0  0  0  0  0  0  0  0
    2.7077    0.6464   -0.5750 C   0  0  0  0  0  0  0  0  0  0  0  0
    1.3327    0.6530   -0.8437 C   0  0  0  0  0  0  0  0  0  0  0  0
    3.4999    1.7482   -0.8947 O   0  0  0  0  0  0  0  0  0  0  0  0
   -3.0990    0.5885   -0.1904 C   0  0  0  0  0  0  0  0  0  0  0  0
   -3.4684    1.0529   -1.3024 O   0  0  0  0  0  0  0  0  0  0  0  0
   -4.0547    0.1352    0.7158 O   0  0  0  0  0  0  0  0  0  0  0  0
   -1.8778    0.7833    2.1764 H   0  0  0  0  0  0  0  0  0  0  0  0
   -1.8371   -0.8332    1.6788 H   0  0  0  0  0  0  0  0  0  0  0  0
   -1.2223    1.5695    0.0334 H   0  0  0  0  0  0  0  0  0  0  0  0
   -1.0367   -0.0585   -1.8718 H   0  0  0  0  0  0  0  0  0  0  0  0
   -1.3258   -1.4172   -0.7513 H   0  0  0  0  0  0  0  0  0  0  0  0
    0.5001   -2.3945    0.3018 H   0  0  0  0  0  0  0  0  0  0  0  0
    2.9077   -2.4613    0.7925 H   0  0  0  0  0  0  0  0  0  0  0  0
    0.8899    1.5255   -1.3099 H   0  0  0  0  0  0  0  0  0  0  0  0
    3.1063    2.5765   -1.3257 H   0  0  0  0  0  0  0  0  0  0  0  0
   -5.0419    0.1699    0.4911 H   0  0  0  0  0  0  0  0  0  0  0  0
  1  2  1  0
  2  3  1  0
  3  4  1  0
  4  5  1  0
  5  6  2  0
  6  7  1  0
  7  8  2  0
  7  9  1  0
  9 10  2  0
 10  4  1  0
  9 11  1  0
  2 12  1  0
 12 13  2  0
 12 14  1  0
  1 15  1  0
  1 16  1  0
  2 17  1  0
  3 18  1  0
  3 19  1  0
  5 20  1  0
  6 21  1  0
 10 22  1  0
 11 23  1  0
 14 24  1  0
M  END
> <ID>
HT1404

> <Class>
0.0

> <Clusters>
146

> <Fold>
4

$$$$