
     RDKit          3D

 49 52  0  0  0  0  0  0  0  0999 V2000
    6.8860    0.1237   -0.3570 C   0  0  0  0  0  0  0  0  0  0  0  0
    5.9654    1.1666   -0.0529 O   0  0  0  0  0  0  0  0  0  0  0  0
    4.5850    0.9818    0.1177 C   0  0  0  0  0  0  0  0  0  0  0  0
    3.8002    2.0948    0.4154 C   0  0  0  0  0  0  0  0  0  0  0  0
    2.4213    1.9699    0.5865 C   0  0  0  0  0  0  0  0  0  0  0  0
    1.7815    0.7212    0.4379 C   0  0  0  0  0  0  0  0  0  0  0  0
    0.2778    0.5680    0.6737 C   0  0  1  0  0  0  0  0  0  0  0  0
   -0.5573    1.8306    0.2947 C   0  0  0  0  0  0  0  0  0  0  0  0
   -2.0851    1.6228    0.4478 C   0  0  0  0  0  0  0  0  0  0  0  0
   -2.5687    0.3531   -0.2991 C   0  0  1  0  0  0  0  0  0  0  0  0
   -2.4045    0.5739   -1.8416 C   0  0  0  0  0  0  0  0  0  0  0  0
   -1.7628   -0.8422    0.2336 C   0  0  1  0  0  0  0  0  0  0  0  0
   -2.5030   -2.0689   -0.2868 C   0  0  0  0  0  0  0  0  0  0  0  0
   -3.9825   -1.6398   -0.3310 C   0  0  0  0  0  0  0  0  0  0  0  0
   -4.0296   -0.1218   -0.0098 C   0  0  2  0  0  0  0  0  0  0  0  0
   -4.9786    0.5119   -0.8344 O   0  0  0  0  0  0  0  0  0  0  0  0
   -4.4292    0.0601    1.4086 C   0  0  0  0  0  0  0  0  0  0  0  0
   -4.7553    0.2058    2.5603 C   0  0  0  0  0  0  0  0  0  0  0  0
   -0.2525   -0.7079   -0.0462 C   0  0  2  0  0  0  0  0  0  0  0  0
    0.5338   -1.9205    0.4669 C   0  0  0  0  0  0  0  0  0  0  0  0
    2.0062   -1.8155    0.0571 C   0  0  0  0  0  0  0  0  0  0  0  0
    2.5871   -0.4229    0.1876 C   0  0  0  0  0  0  0  0  0  0  0  0
    3.9723   -0.2768    0.0063 C   0  0  0  0  0  0  0  0  0  0  0  0
    7.9059    0.5524   -0.4373 H   0  0  0  0  0  0  0  0  0  0  0  0
    6.6213   -0.3486   -1.3266 H   0  0  0  0  0  0  0  0  0  0  0  0
    6.8826   -0.6367    0.4524 H   0  0  0  0  0  0  0  0  0  0  0  0
    4.2645    3.0675    0.5206 H   0  0  0  0  0  0  0  0  0  0  0  0
    1.8709    2.8630    0.8379 H   0  0  0  0  0  0  0  0  0  0  0  0
    0.1493    0.4259    1.7709 H   0  0  0  0  0  0  0  0  0  0  0  0
   -0.3093    2.1580   -0.7364 H   0  0  0  0  0  0  0  0  0  0  0  0
   -0.2939    2.6683    0.9730 H   0  0  0  0  0  0  0  0  0  0  0  0
   -2.6211    2.5183    0.0653 H   0  0  0  0  0  0  0  0  0  0  0  0
   -2.3049    1.5480    1.5343 H   0  0  0  0  0  0  0  0  0  0  0  0
   -2.7418   -0.3068   -2.4257 H   0  0  0  0  0  0  0  0  0  0  0  0
   -1.3654    0.7906   -2.1488 H   0  0  0  0  0  0  0  0  0  0  0  0
   -3.0099    1.4448   -2.1705 H   0  0  0  0  0  0  0  0  0  0  0  0
   -1.8709   -0.8766    1.3456 H   0  0  0  0  0  0  0  0  0  0  0  0
   -2.1436   -2.3415   -1.3032 H   0  0  0  0  0  0  0  0  0  0  0  0
   -2.3622   -2.9373    0.3932 H   0  0  0  0  0  0  0  0  0  0  0  0
   -4.3870   -1.8347   -1.3489 H   0  0  0  0  0  0  0  0  0  0  0  0
   -4.5852   -2.2435    0.3847 H   0  0  0  0  0  0  0  0  0  0  0  0
   -4.9424    1.4848   -0.6356 H   0  0  0  0  0  0  0  0  0  0  0  0
   -5.0407    0.3337    3.5711 H   0  0  0  0  0  0  0  0  0  0  0  0
   -0.0726   -0.6375   -1.1396 H   0  0  0  0  0  0  0  0  0  0  0  0
    0.4577   -1.9863    1.5752 H   0  0  0  0  0  0  0  0  0  0  0  0
    0.1199   -2.8602    0.0425 H   0  0  0  0  0  0  0  0  0  0  0  0
    2.1119   -2.1392   -1.0015 H   0  0  0  0  0  0  0  0  0  0  0  0
    2.5925   -2.5206    0.6860 H   0  0  0  0  0  0  0  0  0  0  0  0
    4.5671   -1.1537   -0.2139 H   0  0  0  0  0  0  0  0  0  0  0  0
  1  2  1  0
  2  3  1  0
  3  4  2  0
  4  5  1  0
  5  6  2  0
  6  7  1  0
  7  8  1  0
  8  9  1  0
  9 10  1  0
 10 11  1  6
 10 12  1  0
 12 13  1  0
 13 14  1  0
 14 15  1  0
 15 10  1  0
 15 16  1  0
 15 17  1  1
 17 18  3  0
 12 19  1  0
 19  7  1  0
 19 20  1  0
 20 21  1  0
 21 22  1  0
 22  6  1  0
 22 23  2  0
 23  3  1  0
  1 24  1  0
  1 25  1  0
  1 26  1  0
  4 27  1  0
  5 28  1  0
  7 29  1  1
  8 30  1  0
  8 31  1  0
  9 32  1  0
  9 33  1  0
 11 34  1  0
 11 35  1  0
 11 36  1  0
 12 37  1  1
 13 38  1  0
 13 39  1  0
 14 40  1  0
 14 41  1  0
 16 42  1  0
 18 43  1  0
 19 44  1  6
 20 45  1  0
 20 46  1  0
 21 47  1  0
 21 48  1  0
 23 49  1  0
M  END
> <ID>
HT1321

> <Class>
0.0

> <Clusters>
162

> <Fold>
4

$$$$