
     RDKit          3D

 18 17  0  0  0  0  0  0  0  0999 V2000
   -1.0930   -1.1624   -0.8672 C   0  0  0  0  0  0  0  0  0  0  0  0
   -0.1567    0.0274   -1.0772 C   0  0  0  0  0  0  0  0  0  0  0  0
    0.0544    0.8055    0.2059 C   0  0  0  0  0  0  0  0  0  0  0  0
    0.8635    0.3826    1.2066 C   0  0  0  0  0  0  0  0  0  0  0  0
    1.6858   -0.8486    1.2379 C   0  0  0  0  0  0  0  0  0  0  0  0
    2.2636   -1.1600    2.3132 O   0  0  0  0  0  0  0  0  0  0  0  0
    1.8630   -1.6574    0.1206 O   0  0  0  0  0  0  0  0  0  0  0  0
   -0.6538    2.1046    0.3692 C   0  0  0  0  0  0  0  0  0  0  0  0
   -0.1577    3.0069    1.0961 O   0  0  0  0  0  0  0  0  0  0  0  0
   -1.8717    2.3561   -0.2614 O   0  0  0  0  0  0  0  0  0  0  0  0
   -2.0928   -0.8103   -0.5364 H   0  0  0  0  0  0  0  0  0  0  0  0
   -0.6925   -1.8600   -0.1037 H   0  0  0  0  0  0  0  0  0  0  0  0
   -1.2110   -1.7143   -1.8232 H   0  0  0  0  0  0  0  0  0  0  0  0
    0.8102   -0.2960   -1.5112 H   0  0  0  0  0  0  0  0  0  0  0  0
   -0.6007    0.6830   -1.8558 H   0  0  0  0  0  0  0  0  0  0  0  0
    0.9231    0.9868    2.1052 H   0  0  0  0  0  0  0  0  0  0  0  0
    2.4359   -2.4916    0.1663 H   0  0  0  0  0  0  0  0  0  0  0  0
   -2.3696    1.6477   -0.7849 H   0  0  0  0  0  0  0  0  0  0  0  0
  1  2  1  0
  2  3  1  0
  3  4  2  0
  4  5  1  0
  5  6  2  0
  5  7  1  0
  3  8  1  0
  8  9  2  0
  8 10  1  0
  1 11  1  0
  1 12  1  0
  1 13  1  0
  2 14  1  0
  2 15  1  0
  4 16  1  0
  7 17  1  0
 10 18  1  0
M  END
> <ID>
HT1432

> <Class>
0.0

> <Clusters>
80

> <Fold>
4

$$$$