
     RDKit          3D

 31 32  0  0  0  0  0  0  0  0999 V2000
   -3.1344   -2.6793    0.2211 C   0  0  0  0  0  0  0  0  0  0  0  0
   -2.4855   -1.3371    0.0512 C   0  0  0  0  0  0  0  0  0  0  0  0
   -3.2481   -0.2071   -0.2801 C   0  0  0  0  0  0  0  0  0  0  0  0
   -2.6335    1.0450   -0.4276 C   0  0  0  0  0  0  0  0  0  0  0  0
   -3.4475    2.2429   -0.8199 C   0  0  0  0  0  0  0  0  0  0  0  0
   -1.2433    1.1571   -0.2733 C   0  0  0  0  0  0  0  0  0  0  0  0
   -0.4700    0.0286    0.0587 C   0  0  0  0  0  0  0  0  0  0  0  0
    0.9199    0.0938    0.2328 O   0  0  0  0  0  0  0  0  0  0  0  0
    1.6976    1.2818    0.0947 C   0  0  0  0  0  0  0  0  0  0  0  0
    3.1749    0.9782    0.3552 C   0  0  0  0  0  0  0  0  0  0  0  0
    3.7623   -0.0558   -0.6503 C   0  0  0  0  0  0  0  0  0  0  0  0
    4.2093   -1.1709    0.1694 N   0  0  0  0  0  0  0  0  0  0  0  0
    3.9284   -0.8451    1.5096 C   0  0  0  0  0  0  0  0  0  0  0  0
    4.1926   -1.6011    2.4802 O   0  0  0  0  0  0  0  0  0  0  0  0
    3.3350    0.3881    1.6425 O   0  0  0  0  0  0  0  0  0  0  0  0
   -1.0999   -1.2100    0.2216 C   0  0  0  0  0  0  0  0  0  0  0  0
   -2.7029   -3.3970   -0.5080 H   0  0  0  0  0  0  0  0  0  0  0  0
   -4.2315   -2.6268    0.0556 H   0  0  0  0  0  0  0  0  0  0  0  0
   -2.9519   -3.0540    1.2503 H   0  0  0  0  0  0  0  0  0  0  0  0
   -4.3184   -0.2997   -0.4226 H   0  0  0  0  0  0  0  0  0  0  0  0
   -4.4843    2.1581   -0.4301 H   0  0  0  0  0  0  0  0  0  0  0  0
   -3.0015    3.1724   -0.4063 H   0  0  0  0  0  0  0  0  0  0  0  0
   -3.4819    2.3191   -1.9267 H   0  0  0  0  0  0  0  0  0  0  0  0
   -0.7743    2.1221   -0.4124 H   0  0  0  0  0  0  0  0  0  0  0  0
    1.3514    2.0405    0.8297 H   0  0  0  0  0  0  0  0  0  0  0  0
    1.5825    1.6927   -0.9320 H   0  0  0  0  0  0  0  0  0  0  0  0
    3.7585    1.9237    0.3121 H   0  0  0  0  0  0  0  0  0  0  0  0
    4.6291    0.3774   -1.1938 H   0  0  0  0  0  0  0  0  0  0  0  0
    3.0084   -0.4121   -1.3853 H   0  0  0  0  0  0  0  0  0  0  0  0
    4.6639   -2.0467   -0.1719 H   0  0  0  0  0  0  0  0  0  0  0  0
   -0.5048   -2.0788    0.4769 H   0  0  0  0  0  0  0  0  0  0  0  0
  1  2  1  0
  2  3  2  0
  3  4  1  0
  4  5  1  0
  4  6  2  0
  6  7  1  0
  7  8  1  0
  8  9  1  0
  9 10  1  0
 10 11  1  0
 11 12  1  0
 12 13  1  0
 13 14  2  0
 13 15  1  0
 15 10  1  0
  7 16  2  0
 16  2  1  0
  1 17  1  0
  1 18  1  0
  1 19  1  0
  3 20  1  0
  5 21  1  0
  5 22  1  0
  5 23  1  0
  6 24  1  0
  9 25  1  0
  9 26  1  0
 10 27  1  0
 11 28  1  0
 11 29  1  0
 12 30  1  0
 16 31  1  0
M  END
> <ID>
HT1326

> <Class>
0.0

> <Clusters>
217

> <Fold>
4

$$$$