
     RDKit          3D

 26 27  0  0  0  0  0  0  0  0999 V2000
   -1.2945   -1.1346   -1.1290 C   0  0  0  0  0  0  0  0  0  0  0  0
   -1.2612   -0.1962   -0.0037 N   0  0  0  0  0  0  0  0  0  0  0  0
   -0.1844    0.4281    0.4653 N   0  0  0  0  0  0  0  0  0  0  0  0
   -0.5850    1.2776    1.4324 C   0  0  0  0  0  0  0  0  0  0  0  0
    0.1883    2.0197    2.0950 O   0  0  0  0  0  0  0  0  0  0  0  0
   -1.9509    1.2020    1.6013 C   0  0  0  0  0  0  0  0  0  0  0  0
   -2.3446    0.2465    0.6782 C   0  0  0  0  0  0  0  0  0  0  0  0
   -3.7584   -0.1655    0.4092 C   0  0  0  0  0  0  0  0  0  0  0  0
    1.1754    0.2035    0.0543 C   0  0  0  0  0  0  0  0  0  0  0  0
    1.9764    1.2803   -0.3579 C   0  0  0  0  0  0  0  0  0  0  0  0
    3.3049    1.0644   -0.7378 C   0  0  0  0  0  0  0  0  0  0  0  0
    3.8433   -0.2250   -0.7001 C   0  0  0  0  0  0  0  0  0  0  0  0
    3.0550   -1.2998   -0.2792 C   0  0  0  0  0  0  0  0  0  0  0  0
    1.7264   -1.0872    0.1014 C   0  0  0  0  0  0  0  0  0  0  0  0
   -2.0392   -0.7935   -1.8786 H   0  0  0  0  0  0  0  0  0  0  0  0
   -0.3135   -1.1963   -1.6399 H   0  0  0  0  0  0  0  0  0  0  0  0
   -1.5792   -2.1436   -0.7646 H   0  0  0  0  0  0  0  0  0  0  0  0
   -2.5700    1.7618    2.2902 H   0  0  0  0  0  0  0  0  0  0  0  0
   -3.8204   -1.2704    0.3247 H   0  0  0  0  0  0  0  0  0  0  0  0
   -4.4220    0.1642    1.2363 H   0  0  0  0  0  0  0  0  0  0  0  0
   -4.1047    0.2961   -0.5387 H   0  0  0  0  0  0  0  0  0  0  0  0
    1.5675    2.2822   -0.3928 H   0  0  0  0  0  0  0  0  0  0  0  0
    3.9169    1.8966   -1.0608 H   0  0  0  0  0  0  0  0  0  0  0  0
    4.8718   -0.3906   -0.9937 H   0  0  0  0  0  0  0  0  0  0  0  0
    3.4745   -2.2969   -0.2440 H   0  0  0  0  0  0  0  0  0  0  0  0
    1.1274   -1.9236    0.4390 H   0  0  0  0  0  0  0  0  0  0  0  0
  1  2  1  0
  2  3  1  0
  3  4  1  0
  4  5  2  0
  4  6  1  0
  6  7  2  0
  7  2  1  0
  7  8  1  0
  3  9  1  0
  9 10  2  0
 10 11  1  0
 11 12  2  0
 12 13  1  0
 13 14  2  0
 14  9  1  0
  1 15  1  0
  1 16  1  0
  1 17  1  0
  6 18  1  0
  8 19  1  0
  8 20  1  0
  8 21  1  0
 10 22  1  0
 11 23  1  0
 12 24  1  0
 13 25  1  0
 14 26  1  0
M  END
> <ID>
HT0167

> <Class>
0.0

> <Clusters>
16

> <Fold>
4

$$$$