
     RDKit          3D

 29 28  0  0  0  0  0  0  0  0999 V2000
    1.4647   -2.0941    0.9988 C   0  0  0  0  0  0  0  0  0  0  0  0
    0.7835   -0.7965    0.5590 C   0  0  0  0  0  0  0  0  0  0  0  0
   -0.6390   -1.0986    0.0115 C   0  0  0  0  0  0  0  0  0  0  0  0
   -1.5748    0.0678   -0.0649 N   0  0  0  0  0  0  0  0  0  0  0  0
   -2.8191   -0.3911   -0.7311 C   0  0  0  0  0  0  0  0  0  0  0  0
   -1.9325    0.5580    1.2892 C   0  0  0  0  0  0  0  0  0  0  0  0
   -1.0066    1.1801   -0.8621 C   0  0  0  0  0  0  0  0  0  0  0  0
    1.5835   -0.2016   -0.4662 O   0  0  0  0  0  0  0  0  0  0  0  0
    2.4507    0.8773   -0.2557 C   0  0  0  0  0  0  0  0  0  0  0  0
    2.6017    1.3747    0.8931 O   0  0  0  0  0  0  0  0  0  0  0  0
    3.1675    1.4753   -1.4175 C   0  0  0  0  0  0  0  0  0  0  0  0
    2.4922   -1.8754    1.3596 H   0  0  0  0  0  0  0  0  0  0  0  0
    1.5303   -2.8060    0.1481 H   0  0  0  0  0  0  0  0  0  0  0  0
    0.8978   -2.5677    1.8286 H   0  0  0  0  0  0  0  0  0  0  0  0
    0.7282   -0.1441    1.4529 H   0  0  0  0  0  0  0  0  0  0  0  0
   -1.1011   -1.8917    0.6446 H   0  0  0  0  0  0  0  0  0  0  0  0
   -0.5158   -1.5560   -0.9979 H   0  0  0  0  0  0  0  0  0  0  0  0
   -2.6126   -0.7455   -1.7663 H   0  0  0  0  0  0  0  0  0  0  0  0
   -3.5695    0.4287   -0.8019 H   0  0  0  0  0  0  0  0  0  0  0  0
   -3.2891   -1.2294   -0.1688 H   0  0  0  0  0  0  0  0  0  0  0  0
   -2.2884   -0.2742    1.9365 H   0  0  0  0  0  0  0  0  0  0  0  0
   -2.7428    1.3198    1.2369 H   0  0  0  0  0  0  0  0  0  0  0  0
   -1.0745    1.0498    1.7928 H   0  0  0  0  0  0  0  0  0  0  0  0
   -0.1774    1.6832   -0.3222 H   0  0  0  0  0  0  0  0  0  0  0  0
   -0.6260    0.8153   -1.8421 H   0  0  0  0  0  0  0  0  0  0  0  0
   -1.7722    1.9636   -1.0606 H   0  0  0  0  0  0  0  0  0  0  0  0
    2.5806    2.3305   -1.8121 H   0  0  0  0  0  0  0  0  0  0  0  0
    4.1720    1.8314   -1.1054 H   0  0  0  0  0  0  0  0  0  0  0  0
    3.2889    0.7164   -2.2186 H   0  0  0  0  0  0  0  0  0  0  0  0
  1  2  1  0
  2  3  1  0
  3  4  1  0
  4  5  1  0
  4  6  1  0
  4  7  1  0
  2  8  1  0
  8  9  1  0
  9 10  2  0
  9 11  1  0
  1 12  1  0
  1 13  1  0
  1 14  1  0
  2 15  1  0
  3 16  1  0
  3 17  1  0
  5 18  1  0
  5 19  1  0
  5 20  1  0
  6 21  1  0
  6 22  1  0
  6 23  1  0
  7 24  1  0
  7 25  1  0
  7 26  1  0
 11 27  1  0
 11 28  1  0
 11 29  1  0
M  CHG  1   4   1
M  END
> <ID>
HT1329

> <Class>
0.0

> <Clusters>
4

> <Fold>
4

$$$$